<net xmlns:xsi="http://www.w3.org/2001/XMLSchema-instance" version="1.9" junctionCornerDetail="5" limitTurnSpeed="5.50" xsi:noNamespaceSchemaLocation="http://sumo.dlr.de/xsd/net_file.xsd">

    <location netOffset="327.21,334.56" convBoundary="0.00,0.00,662.31,670.66" origBoundary="-327.21,-334.56,335.11,336.10" projParameter="!" />

    <edge id=":A_0" function="internal">
        <lane id=":A_0_0" index="0" speed="6.51" length="9.03" shape="325.61,509.81,8.24 325.26,507.36,8.24 324.21,505.61,8.24 322.46,504.56,8.24 320.01,504.21,8.24" />
    </edge>
    <edge id=":A_1" function="internal">
        <lane id=":A_1_0" index="0" speed="11.18" length="14.40" shape="325.61,509.81,8.24 325.61,495.41,8.24" />
    </edge>
    <edge id=":A_2" function="internal">
        <lane id=":A_2_0" index="0" speed="8.00" length="4.07" shape="325.61,509.81,8.24 326.16,505.96,8.24 326.25,505.81,8.24" />
    </edge>
    <edge id=":A_3" function="internal">
        <lane id=":A_3_0" index="0" speed="3.65" length="1.44" shape="325.61,509.81,8.24 326.41,508.61,8.24" />
    </edge>
    <edge id=":A_16" function="internal">
        <lane id=":A_16_0" index="0" speed="8.00" length="10.13" shape="326.25,505.81,8.24 327.81,503.21,8.24 330.56,501.56,8.24 334.41,501.01,8.24" />
    </edge>
    <edge id=":A_17" function="internal">
        <lane id=":A_17_0" index="0" speed="3.65" length="3.23" shape="326.41,508.61,8.24 327.21,508.21,8.24 328.01,508.61,8.24 328.81,509.81,8.24" />
    </edge>
    <edge id=":A_4" function="internal">
        <lane id=":A_4_0" index="0" speed="6.51" length="9.03" shape="334.41,504.21,8.24 331.96,504.56,8.24 330.21,505.61,8.24 329.16,507.36,8.24 328.81,509.81,8.24" />
    </edge>
    <edge id=":A_5" function="internal">
        <lane id=":A_5_0" index="0" speed="11.18" length="14.40" shape="334.41,504.21,8.24 320.01,504.21,8.24" />
    </edge>
    <edge id=":A_6" function="internal">
        <lane id=":A_6_0" index="0" speed="8.00" length="4.07" shape="334.41,504.21,8.24 330.56,503.66,8.24 330.40,503.57,8.24" />
    </edge>
    <edge id=":A_7" function="internal">
        <lane id=":A_7_0" index="0" speed="3.65" length="1.44" shape="334.41,504.21,8.24 333.21,503.41,8.24" />
    </edge>
    <edge id=":A_18" function="internal">
        <lane id=":A_18_0" index="0" speed="8.00" length="10.13" shape="330.40,503.57,8.24 327.81,502.01,8.24 326.16,499.26,8.24 325.61,495.41,8.24" />
    </edge>
    <edge id=":A_19" function="internal">
        <lane id=":A_19_0" index="0" speed="3.65" length="3.23" shape="333.21,503.41,8.24 332.81,502.61,8.24 333.21,501.81,8.24 334.41,501.01,8.24" />
    </edge>
    <edge id=":A_8" function="internal">
        <lane id=":A_8_0" index="0" speed="6.51" length="9.03" shape="328.81,495.41,8.24 329.16,497.86,8.24 330.21,499.61,8.24 331.96,500.66,8.24 334.41,501.01,8.24" />
    </edge>
    <edge id=":A_9" function="internal">
        <lane id=":A_9_0" index="0" speed="11.18" length="14.40" shape="328.81,495.41,8.24 328.81,509.81,8.24" />
    </edge>
    <edge id=":A_10" function="internal">
        <lane id=":A_10_0" index="0" speed="8.00" length="4.07" shape="328.81,495.41,8.24 328.26,499.26,8.24 328.16,499.41,8.24" />
    </edge>
    <edge id=":A_11" function="internal">
        <lane id=":A_11_0" index="0" speed="3.65" length="1.44" shape="328.81,495.41,8.24 328.01,496.61,8.24" />
    </edge>
    <edge id=":A_20" function="internal">
        <lane id=":A_20_0" index="0" speed="8.00" length="10.13" shape="328.16,499.41,8.24 326.61,502.01,8.24 323.86,503.66,8.24 320.01,504.21,8.24" />
    </edge>
    <edge id=":A_21" function="internal">
        <lane id=":A_21_0" index="0" speed="3.65" length="3.23" shape="328.01,496.61,8.24 327.21,497.01,8.24 326.41,496.61,8.24 325.61,495.41,8.24" />
    </edge>
    <edge id=":A_12" function="internal">
        <lane id=":A_12_0" index="0" speed="6.51" length="9.03" shape="320.01,501.01,8.24 322.46,500.66,8.24 324.21,499.61,8.24 325.26,497.86,8.24 325.61,495.41,8.24" />
    </edge>
    <edge id=":A_13" function="internal">
        <lane id=":A_13_0" index="0" speed="11.18" length="14.40" shape="320.01,501.01,8.24 334.41,501.01,8.24" />
    </edge>
    <edge id=":A_14" function="internal">
        <lane id=":A_14_0" index="0" speed="8.00" length="4.07" shape="320.01,501.01,8.24 323.86,501.56,8.24 324.01,501.65,8.24" />
    </edge>
    <edge id=":A_15" function="internal">
        <lane id=":A_15_0" index="0" speed="3.65" length="1.44" shape="320.01,501.01,8.24 321.21,501.81,8.24" />
    </edge>
    <edge id=":A_22" function="internal">
        <lane id=":A_22_0" index="0" speed="8.00" length="10.13" shape="324.01,501.65,8.24 326.61,503.21,8.24 328.26,505.96,8.24 328.81,509.81,8.24" />
    </edge>
    <edge id=":A_23" function="internal">
        <lane id=":A_23_0" index="0" speed="3.65" length="3.23" shape="321.21,501.81,8.24 321.61,502.61,8.24 321.21,503.41,8.24 320.01,504.21,8.24" />
    </edge>
    <edge id=":AA_0" function="internal">
        <lane id=":AA_0_0" index="0" speed="3.65" length="4.67" shape="159.16,504.21,8.24 157.96,503.41,8.24 157.56,502.61,8.24 157.96,501.81,8.24 159.16,501.01,8.24" />
    </edge>
    <edge id=":AB_0" function="internal">
        <lane id=":AB_0_0" index="0" speed="3.65" length="4.67" shape="328.81,670.66,8.24 328.01,671.86,8.24 327.21,672.26,8.24 326.41,671.86,8.24 325.61,670.66,8.24" />
    </edge>
    <edge id=":AC_0" function="internal">
        <lane id=":AC_0_0" index="0" speed="3.65" length="4.67" shape="495.26,501.01,8.24 496.46,501.81,8.24 496.86,502.61,8.24 496.46,503.41,8.24 495.26,504.21,8.24" />
    </edge>
    <edge id=":B_0" function="internal">
        <lane id=":B_0_0" index="0" speed="6.51" length="9.03" shape="493.16,341.76,-8.78 492.81,339.31,-8.78 491.76,337.56,-8.78 490.01,336.51,-8.78 487.56,336.16,-8.78" />
    </edge>
    <edge id=":B_1" function="internal">
        <lane id=":B_1_0" index="0" speed="11.18" length="14.40" shape="493.16,341.76,-8.78 493.16,327.36,-8.78" />
    </edge>
    <edge id=":B_2" function="internal">
        <lane id=":B_2_0" index="0" speed="8.00" length="4.07" shape="493.16,341.76,-8.78 493.71,337.91,-8.78 493.80,337.76,-8.78" />
    </edge>
    <edge id=":B_3" function="internal">
        <lane id=":B_3_0" index="0" speed="3.65" length="1.44" shape="493.16,341.76,-8.78 493.96,340.56,-8.78" />
    </edge>
    <edge id=":B_16" function="internal">
        <lane id=":B_16_0" index="0" speed="8.00" length="10.13" shape="493.80,337.76,-8.78 495.36,335.16,-8.78 498.11,333.51,-8.78 501.96,332.96,-8.78" />
    </edge>
    <edge id=":B_17" function="internal">
        <lane id=":B_17_0" index="0" speed="3.65" length="3.23" shape="493.96,340.56,-8.78 494.76,340.16,-8.78 495.56,340.56,-8.78 496.36,341.76,-8.78" />
    </edge>
    <edge id=":B_4" function="internal">
        <lane id=":B_4_0" index="0" speed="6.51" length="9.03" shape="501.96,336.16,-8.78 499.51,336.51,-8.78 497.76,337.56,-8.78 496.71,339.31,-8.78 496.36,341.76,-8.78" />
    </edge>
    <edge id=":B_5" function="internal">
        <lane id=":B_5_0" index="0" speed="11.18" length="14.40" shape="501.96,336.16,-8.78 487.56,336.16,-8.78" />
    </edge>
    <edge id=":B_6" function="internal">
        <lane id=":B_6_0" index="0" speed="8.00" length="4.07" shape="501.96,336.16,-8.78 498.11,335.61,-8.78 497.96,335.52,-8.78" />
    </edge>
    <edge id=":B_7" function="internal">
        <lane id=":B_7_0" index="0" speed="3.65" length="1.44" shape="501.96,336.16,-8.78 500.76,335.36,-8.78" />
    </edge>
    <edge id=":B_18" function="internal">
        <lane id=":B_18_0" index="0" speed="8.00" length="10.13" shape="497.96,335.52,-8.78 495.36,333.96,-8.78 493.71,331.21,-8.78 493.16,327.36,-8.78" />
    </edge>
    <edge id=":B_19" function="internal">
        <lane id=":B_19_0" index="0" speed="3.65" length="3.23" shape="500.76,335.36,-8.78 500.36,334.56,-8.78 500.76,333.76,-8.78 501.96,332.96,-8.78" />
    </edge>
    <edge id=":B_8" function="internal">
        <lane id=":B_8_0" index="0" speed="6.51" length="9.03" shape="496.36,327.36,-8.78 496.71,329.81,-8.78 497.76,331.56,-8.78 499.51,332.61,-8.78 501.96,332.96,-8.78" />
    </edge>
    <edge id=":B_9" function="internal">
        <lane id=":B_9_0" index="0" speed="11.18" length="14.40" shape="496.36,327.36,-8.78 496.36,341.76,-8.78" />
    </edge>
    <edge id=":B_10" function="internal">
        <lane id=":B_10_0" index="0" speed="8.00" length="4.07" shape="496.36,327.36,-8.78 495.81,331.21,-8.78 495.72,331.36,-8.78" />
    </edge>
    <edge id=":B_11" function="internal">
        <lane id=":B_11_0" index="0" speed="3.65" length="1.44" shape="496.36,327.36,-8.78 495.56,328.56,-8.78" />
    </edge>
    <edge id=":B_20" function="internal">
        <lane id=":B_20_0" index="0" speed="8.00" length="10.13" shape="495.72,331.36,-8.78 494.16,333.96,-8.78 491.41,335.61,-8.78 487.56,336.16,-8.78" />
    </edge>
    <edge id=":B_21" function="internal">
        <lane id=":B_21_0" index="0" speed="3.65" length="3.23" shape="495.56,328.56,-8.78 494.76,328.96,-8.78 493.96,328.56,-8.78 493.16,327.36,-8.78" />
    </edge>
    <edge id=":B_12" function="internal">
        <lane id=":B_12_0" index="0" speed="6.51" length="9.03" shape="487.56,332.96,-8.78 490.01,332.61,-8.78 491.76,331.56,-8.78 492.81,329.81,-8.78 493.16,327.36,-8.78" />
    </edge>
    <edge id=":B_13" function="internal">
        <lane id=":B_13_0" index="0" speed="11.18" length="14.40" shape="487.56,332.96,-8.78 501.96,332.96,-8.78" />
    </edge>
    <edge id=":B_14" function="internal">
        <lane id=":B_14_0" index="0" speed="8.00" length="4.07" shape="487.56,332.96,-8.78 491.41,333.51,-8.78 491.56,333.60,-8.78" />
    </edge>
    <edge id=":B_15" function="internal">
        <lane id=":B_15_0" index="0" speed="3.65" length="1.44" shape="487.56,332.96,-8.78 488.76,333.76,-8.78" />
    </edge>
    <edge id=":B_22" function="internal">
        <lane id=":B_22_0" index="0" speed="8.00" length="10.13" shape="491.56,333.60,-8.78 494.16,335.16,-8.78 495.81,337.91,-8.78 496.36,341.76,-8.78" />
    </edge>
    <edge id=":B_23" function="internal">
        <lane id=":B_23_0" index="0" speed="3.65" length="3.23" shape="488.76,333.76,-8.78 489.16,334.56,-8.78 488.76,335.36,-8.78 487.56,336.16,-8.78" />
    </edge>
    <edge id=":BA_0" function="internal">
        <lane id=":BA_0_0" index="0" speed="3.65" length="4.67" shape="496.36,502.11,-8.78 495.56,503.31,-8.78 494.76,503.71,-8.78 493.96,503.31,-8.78 493.16,502.11,-8.78" />
    </edge>
    <edge id=":BB_0" function="internal">
        <lane id=":BB_0_0" index="0" speed="3.65" length="4.67" shape="662.31,332.96,-8.78 663.51,333.76,-8.78 663.91,334.56,-8.78 663.51,335.36,-8.78 662.31,336.16,-8.78" />
    </edge>
    <edge id=":BC_0" function="internal">
        <lane id=":BC_0_0" index="0" speed="3.65" length="4.67" shape="493.16,167.01,-8.78 493.96,165.81,-8.78 494.76,165.41,-8.78 495.56,165.81,-8.78 496.36,167.01,-8.78" />
    </edge>
    <edge id=":C_0" function="internal">
        <lane id=":C_0_0" index="0" speed="6.51" length="9.03" shape="334.41,168.88,-0.56 331.96,169.23,-0.55 330.21,170.28,-0.55 329.16,172.03,-0.54 328.81,174.48,-0.54" />
    </edge>
    <edge id=":C_1" function="internal">
        <lane id=":C_1_0" index="0" speed="11.18" length="14.40" shape="328.81,160.08,-0.56 328.81,174.48,-0.54" />
    </edge>
    <edge id=":C_2" function="internal">
        <lane id=":C_2_0" index="0" speed="7.33" length="11.73" shape="323.21,165.68,-0.56 325.66,166.23,-0.56 327.41,167.88,-0.55 328.46,170.63,-0.54 328.81,174.48,-0.54" />
    </edge>
    <edge id=":D_0" function="internal">
        <lane id=":D_0_0" index="0" speed="6.51" length="9.03" shape="162.00,341.76,7.03 161.65,339.31,7.03 160.60,337.56,7.03 158.85,336.51,7.03 156.40,336.16,7.03" />
    </edge>
    <edge id=":D_1" function="internal">
        <lane id=":D_1_0" index="0" speed="11.18" length="14.40" shape="162.00,341.76,7.03 162.00,327.36,7.03" />
    </edge>
    <edge id=":D_2" function="internal">
        <lane id=":D_2_0" index="0" speed="8.00" length="4.07" shape="162.00,341.76,7.03 162.55,337.91,7.03 162.64,337.76,7.03" />
    </edge>
    <edge id=":D_3" function="internal">
        <lane id=":D_3_0" index="0" speed="3.65" length="1.44" shape="162.00,341.76,7.03 162.80,340.56,7.03" />
    </edge>
    <edge id=":D_16" function="internal">
        <lane id=":D_16_0" index="0" speed="8.00" length="10.13" shape="162.64,337.76,7.03 164.20,335.16,7.03 166.95,333.51,7.03 170.80,332.96,7.03" />
    </edge>
    <edge id=":D_17" function="internal">
        <lane id=":D_17_0" index="0" speed="3.65" length="3.23" shape="162.80,340.56,7.03 163.60,340.16,7.03 164.40,340.56,7.03 165.20,341.76,7.03" />
    </edge>
    <edge id=":D_4" function="internal">
        <lane id=":D_4_0" index="0" speed="6.51" length="9.03" shape="170.80,336.16,7.03 168.35,336.51,7.03 166.60,337.56,7.03 165.55,339.31,7.03 165.20,341.76,7.03" />
    </edge>
    <edge id=":D_5" function="internal">
        <lane id=":D_5_0" index="0" speed="11.18" length="14.40" shape="170.80,336.16,7.03 156.40,336.16,7.03" />
    </edge>
    <edge id=":D_6" function="internal">
        <lane id=":D_6_0" index="0" speed="8.00" length="4.07" shape="170.80,336.16,7.03 166.95,335.61,7.03 166.80,335.52,7.03" />
    </edge>
    <edge id=":D_7" function="internal">
        <lane id=":D_7_0" index="0" speed="3.65" length="1.44" shape="170.80,336.16,7.03 169.60,335.36,7.03" />
    </edge>
    <edge id=":D_18" function="internal">
        <lane id=":D_18_0" index="0" speed="8.00" length="10.13" shape="166.80,335.52,7.03 164.20,333.96,7.03 162.55,331.21,7.03 162.00,327.36,7.03" />
    </edge>
    <edge id=":D_19" function="internal">
        <lane id=":D_19_0" index="0" speed="3.65" length="3.23" shape="169.60,335.36,7.03 169.20,334.56,7.03 169.60,333.76,7.03 170.80,332.96,7.03" />
    </edge>
    <edge id=":D_8" function="internal">
        <lane id=":D_8_0" index="0" speed="6.51" length="9.03" shape="165.20,327.36,7.03 165.55,329.81,7.03 166.60,331.56,7.03 168.35,332.61,7.03 170.80,332.96,7.03" />
    </edge>
    <edge id=":D_9" function="internal">
        <lane id=":D_9_0" index="0" speed="11.18" length="14.40" shape="165.20,327.36,7.03 165.20,341.76,7.03" />
    </edge>
    <edge id=":D_10" function="internal">
        <lane id=":D_10_0" index="0" speed="8.00" length="4.07" shape="165.20,327.36,7.03 164.65,331.21,7.03 164.56,331.36,7.03" />
    </edge>
    <edge id=":D_11" function="internal">
        <lane id=":D_11_0" index="0" speed="3.65" length="1.44" shape="165.20,327.36,7.03 164.40,328.56,7.03" />
    </edge>
    <edge id=":D_20" function="internal">
        <lane id=":D_20_0" index="0" speed="8.00" length="10.13" shape="164.56,331.36,7.03 163.00,333.96,7.03 160.25,335.61,7.03 156.40,336.16,7.03" />
    </edge>
    <edge id=":D_21" function="internal">
        <lane id=":D_21_0" index="0" speed="3.65" length="3.23" shape="164.40,328.56,7.03 163.60,328.96,7.03 162.80,328.56,7.03 162.00,327.36,7.03" />
    </edge>
    <edge id=":D_12" function="internal">
        <lane id=":D_12_0" index="0" speed="6.51" length="9.03" shape="156.40,332.96,7.03 158.85,332.61,7.03 160.60,331.56,7.03 161.65,329.81,7.03 162.00,327.36,7.03" />
    </edge>
    <edge id=":D_13" function="internal">
        <lane id=":D_13_0" index="0" speed="11.18" length="14.40" shape="156.40,332.96,7.03 170.80,332.96,7.03" />
    </edge>
    <edge id=":D_14" function="internal">
        <lane id=":D_14_0" index="0" speed="8.00" length="4.07" shape="156.40,332.96,7.03 160.25,333.51,7.03 160.41,333.60,7.03" />
    </edge>
    <edge id=":D_15" function="internal">
        <lane id=":D_15_0" index="0" speed="3.65" length="1.44" shape="156.40,332.96,7.03 157.60,333.76,7.03" />
    </edge>
    <edge id=":D_22" function="internal">
        <lane id=":D_22_0" index="0" speed="8.00" length="10.13" shape="160.41,333.60,7.03 163.00,335.16,7.03 164.65,337.91,7.03 165.20,341.76,7.03" />
    </edge>
    <edge id=":D_23" function="internal">
        <lane id=":D_23_0" index="0" speed="3.65" length="3.23" shape="157.60,333.76,7.03 158.00,334.56,7.03 157.60,335.36,7.03 156.40,336.16,7.03" />
    </edge>
    <edge id=":DA_0" function="internal">
        <lane id=":DA_0_0" index="0" speed="3.65" length="4.67" shape="162.00,170.96,7.03 162.80,169.76,7.03 163.60,169.36,7.03 164.40,169.76,7.03 165.20,170.96,7.03" />
    </edge>
    <edge id=":DB_0" function="internal">
        <lane id=":DB_0_0" index="0" speed="3.65" length="4.67" shape="-0.00,336.16,7.03 -1.20,335.36,7.03 -1.60,334.56,7.03 -1.20,333.76,7.03 0.00,332.96,7.03" />
    </edge>
    <edge id=":DC_0" function="internal">
        <lane id=":DC_0_0" index="0" speed="3.65" length="4.67" shape="165.20,498.16,7.03 164.40,499.36,7.03 163.60,499.76,7.03 162.80,499.36,7.03 162.00,498.16,7.03" />
    </edge>
    <edge id=":D_intern_0" function="internal">
        <lane id=":D_intern_0_0" index="0" speed="11.18" length="8.41" shape="273.21,332.96,2.33 275.67,332.46,2.23 277.21,331.36,2.15 278.74,330.26,2.08 281.21,329.76,1.98" />
        <lane id=":D_intern_0_1" index="1" speed="11.18" length="8.41" shape="273.21,332.96,2.33 281.21,332.96,1.98" />
    </edge>
    <edge id=":TL_0" function="internal">
        <lane id=":TL_0_0" index="0" speed="6.51" length="9.03" shape="325.61,341.76 325.26,339.31 324.21,337.56 322.46,336.51 320.01,336.16" />
    </edge>
    <edge id=":TL_1" function="internal">
        <lane id=":TL_1_0" index="0" speed="6.51" length="9.03" shape="334.41,336.16 331.96,336.51 330.21,337.56 329.16,339.31 328.81,341.76" />
    </edge>
    <edge id=":TL_2" function="internal">
        <lane id=":TL_2_0" index="0" speed="11.18" length="14.40" shape="334.41,336.16 320.01,336.16" />
    </edge>
    <edge id=":TL_3" function="internal">
        <lane id=":TL_3_0" index="0" speed="7.33" length="11.73" shape="328.81,324.16,-0.03 329.16,328.01,-0.02 330.21,330.76,-0.01 331.96,332.41,-0.01 334.41,332.96" />
    </edge>
    <edge id=":TL_4" function="internal">
        <lane id=":TL_4_0" index="0" speed="11.18" length="17.60" shape="328.81,324.16,-0.03 328.81,341.76" />
    </edge>
    <edge id=":TL_5" function="internal">
        <lane id=":TL_5_0" index="0" speed="11.18" length="14.83" shape="320.01,329.76 324.66,330.26 328.10,331.36 331.08,332.46 334.41,332.96" />
    </edge>
    <edge id=":TL_6" function="internal">
        <lane id=":TL_6_0" index="0" speed="8.00" length="4.07" shape="320.01,332.96 323.86,333.51 324.01,333.60" />
    </edge>
    <edge id=":TL_7" function="internal">
        <lane id=":TL_7_0" index="0" speed="8.00" length="10.13" shape="324.01,333.60 326.61,335.16 328.26,337.91 328.81,341.76" />
    </edge>

    <edge id="A2AA" from="A" to="AA" priority="-1">
        <lane id="A2AA_0" index="0" speed="11.18" length="160.85" shape="320.01,504.21,8.24 159.16,504.21,8.24" />
    </edge>
    <edge id="A2AB" from="A" to="AB" priority="-1">
        <lane id="A2AB_0" index="0" speed="11.18" length="160.85" shape="328.81,509.81,8.24 328.81,670.66,8.24" />
    </edge>
    <edge id="A2AC" from="A" to="AC" priority="-1">
        <lane id="A2AC_0" index="0" speed="11.18" length="160.85" shape="334.41,501.01,8.24 495.26,501.01,8.24" />
    </edge>
    <edge id="A2TL" from="A" to="TL" priority="-1">
        <lane id="A2TL_0" index="0" speed="11.18" length="153.87" shape="325.61,495.41,8.24 325.61,341.76" />
    </edge>
    <edge id="AA2A" from="AA" to="A" priority="-1">
        <lane id="AA2A_0" index="0" speed="11.18" length="160.85" shape="159.16,501.01,8.24 320.01,501.01,8.24" />
    </edge>
    <edge id="AB2A" from="AB" to="A" priority="-1">
        <lane id="AB2A_0" index="0" speed="11.18" length="160.85" shape="325.61,670.66,8.24 325.61,509.81,8.24" />
    </edge>
    <edge id="AC2A" from="AC" to="A" priority="-1">
        <lane id="AC2A_0" index="0" speed="11.18" length="160.85" shape="495.26,504.21,8.24 334.41,504.21,8.24" />
    </edge>
    <edge id="B2BA" from="B" to="BA" priority="-1">
        <lane id="B2BA_0" index="0" speed="11.18" length="160.35" shape="496.36,341.76,-8.78 496.36,502.11,-8.78" />
    </edge>
    <edge id="B2BB" from="B" to="BB" priority="-1">
        <lane id="B2BB_0" index="0" speed="11.18" length="160.35" shape="501.96,332.96,-8.78 662.31,332.96,-8.78" />
    </edge>
    <edge id="B2BC" from="B" to="BC" priority="-1">
        <lane id="B2BC_0" index="0" speed="11.18" length="160.35" shape="493.16,327.36,-8.78 493.16,167.01,-8.78" />
    </edge>
    <edge id="B2TL" from="B" to="TL" priority="-1">
        <lane id="B2TL_0" index="0" speed="11.18" length="153.41" shape="487.56,336.16,-8.78 334.41,336.16" />
    </edge>
    <edge id="BA2B" from="BA" to="B" priority="-1">
        <lane id="BA2B_0" index="0" speed="11.18" length="160.35" shape="493.16,502.11,-8.78 493.16,341.76,-8.78" />
    </edge>
    <edge id="BB2B" from="BB" to="B" priority="-1">
        <lane id="BB2B_0" index="0" speed="11.18" length="160.35" shape="662.31,336.16,-8.78 501.96,336.16,-8.78" />
    </edge>
    <edge id="BC2B" from="BC" to="B" priority="-1">
        <lane id="BC2B_0" index="0" speed="11.18" length="160.35" shape="496.36,167.01,-8.78 496.36,327.36,-8.78" />
    </edge>
    <edge id="C2TL" from="C" to="TL" priority="-1">
        <lane id="C2TL_0" index="0" speed="11.18" length="149.68" shape="328.81,174.48,-0.54 328.81,324.16,-0.03" />
    </edge>
    <edge id="CA2C" from="CA" to="C" priority="-1">
        <lane id="CA2C_0" index="0" speed="11.18" length="160.08" shape="494.49,168.88,-0.56 334.41,168.88,-0.56" />
    </edge>
    <edge id="CB2C" from="CB" to="C" priority="-1">
        <lane id="CB2C_0" index="0" speed="11.18" length="160.08" shape="328.81,-0.00,-0.56 328.81,160.08,-0.56" />
    </edge>
    <edge id="CC2C" from="CC" to="C" priority="-1">
        <lane id="CC2C_0" index="0" speed="11.18" length="163.28" shape="159.93,165.68,-0.56 323.21,165.68,-0.56" />
    </edge>
    <edge id="D2DA" from="D" to="DA" priority="-1">
        <lane id="D2DA_0" index="0" speed="11.18" length="156.40" shape="162.00,327.36,7.03 162.00,170.96,7.03" />
    </edge>
    <edge id="D2DB" from="D" to="DB" priority="-1">
        <lane id="D2DB_0" index="0" speed="11.18" length="156.40" shape="156.40,336.16,7.03 -0.00,336.16,7.03" />
    </edge>
    <edge id="D2DC" from="D" to="DC" priority="-1">
        <lane id="D2DC_0" index="0" speed="11.18" length="156.40" shape="165.20,341.76,7.03 165.20,498.16,7.03" />
    </edge>
    <edge id="D2TL" from="D" to="D_intern" priority="-1">
        <lane id="D2TL_0" index="0" speed="11.18" length="102.51" shape="170.80,332.96,7.03 273.21,332.96,2.33" />
    </edge>
    <edge id="D2TL_intern" from="D_intern" to="TL" priority="-1">
        <lane id="D2TL_intern_0" index="0" speed="11.18" length="38.85" shape="281.21,329.76,1.98 320.01,329.76" />
        <lane id="D2TL_intern_1" index="1" speed="11.18" length="38.85" shape="281.21,332.96,1.98 320.01,332.96" />
    </edge>
    <edge id="DA2D" from="DA" to="D" priority="-1">
        <lane id="DA2D_0" index="0" speed="11.18" length="156.40" shape="165.20,170.96,7.03 165.20,327.36,7.03" />
    </edge>
    <edge id="DB2D" from="DB" to="D" priority="-1">
        <lane id="DB2D_0" index="0" speed="11.18" length="156.40" shape="0.00,332.96,7.03 156.40,332.96,7.03" />
    </edge>
    <edge id="DC2D" from="DC" to="D" priority="-1">
        <lane id="DC2D_0" index="0" speed="11.18" length="156.40" shape="162.00,498.16,7.03 162.00,341.76,7.03" />
    </edge>
    <edge id="TL2A" from="TL" to="A" priority="-1">
        <lane id="TL2A_0" index="0" speed="11.18" length="153.87" shape="328.81,341.76 328.81,495.41,8.24" />
    </edge>
    <edge id="TL2B" from="TL" to="B" priority="-1">
        <lane id="TL2B_0" index="0" speed="11.18" length="153.41" shape="334.41,332.96 487.56,332.96,-8.78" />
    </edge>
    <edge id="TL2D" from="TL" to="D" priority="-1">
        <lane id="TL2D_0" index="0" speed="11.18" length="149.37" shape="320.01,336.16 170.80,336.16,7.03" />
    </edge>

    <tlLogic id="A" type="static" programID="0" offset="0">
        <phase duration="42" state="GGggrrrrGGggrrrr" />
        <phase duration="3" state="yyyyrrrryyyyrrrr" />
        <phase duration="42" state="rrrrGGggrrrrGGgg" />
        <phase duration="3" state="rrrryyyyrrrryyyy" />
    </tlLogic>
    <tlLogic id="AA" type="static" programID="0" offset="0">
        <phase duration="82" state="G" />
        <phase duration="3" state="y" />
        <phase duration="5" state="r" />
    </tlLogic>
    <tlLogic id="AB" type="static" programID="0" offset="0">
        <phase duration="82" state="G" />
        <phase duration="3" state="y" />
        <phase duration="5" state="r" />
    </tlLogic>
    <tlLogic id="AC" type="static" programID="0" offset="0">
        <phase duration="82" state="G" />
        <phase duration="3" state="y" />
        <phase duration="5" state="r" />
    </tlLogic>
    <tlLogic id="B" type="static" programID="0" offset="0">
        <phase duration="42" state="GGggrrrrGGggrrrr" />
        <phase duration="3" state="yyyyrrrryyyyrrrr" />
        <phase duration="42" state="rrrrGGggrrrrGGgg" />
        <phase duration="3" state="rrrryyyyrrrryyyy" />
    </tlLogic>
    <tlLogic id="BA" type="static" programID="0" offset="0">
        <phase duration="82" state="G" />
        <phase duration="3" state="y" />
        <phase duration="5" state="r" />
    </tlLogic>
    <tlLogic id="BB" type="static" programID="0" offset="0">
        <phase duration="82" state="G" />
        <phase duration="3" state="y" />
        <phase duration="5" state="r" />
    </tlLogic>
    <tlLogic id="BC" type="static" programID="0" offset="0">
        <phase duration="82" state="G" />
        <phase duration="3" state="y" />
        <phase duration="5" state="r" />
    </tlLogic>
    <tlLogic id="C" type="static" programID="0" offset="0">
        <phase duration="27" state="rrG" />
        <phase duration="3" state="rry" />
        <phase duration="27" state="Grr" />
        <phase duration="3" state="yrr" />
        <phase duration="27" state="rGr" />
        <phase duration="3" state="ryr" />
    </tlLogic>
    <tlLogic id="D" type="static" programID="0" offset="0">
        <phase duration="42" state="GGggrrrrGGggrrrr" />
        <phase duration="3" state="yyyyrrrryyyyrrrr" />
        <phase duration="42" state="rrrrGGggrrrrGGgg" />
        <phase duration="3" state="rrrryyyyrrrryyyy" />
    </tlLogic>
    <tlLogic id="DA" type="static" programID="0" offset="0">
        <phase duration="82" state="G" />
        <phase duration="3" state="y" />
        <phase duration="5" state="r" />
    </tlLogic>
    <tlLogic id="DB" type="static" programID="0" offset="0">
        <phase duration="82" state="G" />
        <phase duration="3" state="y" />
        <phase duration="5" state="r" />
    </tlLogic>
    <tlLogic id="DC" type="static" programID="0" offset="0">
        <phase duration="82" state="G" />
        <phase duration="3" state="y" />
        <phase duration="5" state="r" />
    </tlLogic>
    <tlLogic id="TL" type="static" programID="0" offset="0">
        <phase duration="40" state="sGGsrGr" />
        <phase duration="3" state="syysryr" />
        <phase duration="15" state="srrsrGG" />
        <phase duration="3" state="srrsryy" />
        <phase duration="15" state="GsrGGrr" />
        <phase duration="3" state="ysryyrr" />
    </tlLogic>

    <junction id="A" type="traffic_light" x="327.21" y="502.61" z="8.24" incLanes="AB2A_0 AC2A_0 TL2A_0 AA2A_0" intLanes=":A_0_0 :A_1_0 :A_16_0 :A_17_0 :A_4_0 :A_5_0 :A_18_0 :A_19_0 :A_8_0 :A_9_0 :A_20_0 :A_21_0 :A_12_0 :A_13_0 :A_22_0 :A_23_0" shape="324.01,509.81,8.24 330.41,509.81,8.24 330.85,507.59,8.24 331.41,506.81,8.24 332.18,506.25,8.24 333.18,505.92,8.24 334.41,505.81,8.24 334.41,499.41,8.24 332.18,498.97,8.24 331.41,498.41,8.24 330.85,497.63,8.24 330.52,496.63,8.24 330.41,495.41,8.24 324.01,495.41,8.24 323.56,497.63,8.24 323.01,498.41,8.24 322.23,498.97,8.24 321.23,499.30,8.24 320.01,499.41,8.24 320.01,505.81,8.24 322.23,506.25,8.24 323.01,506.81,8.24 323.56,507.59,8.24 323.89,508.59,8.24">
        <request index="0" response="0000000000000000" foes="1000010000100000" cont="0" />
        <request index="1" response="0100000001000000" foes="0111110001100000" cont="0" />
        <request index="2" response="0100011101000000" foes="0110011111100000" cont="1" />
        <request index="3" response="0100001000010000" foes="0100001000010000" cont="1" />
        <request index="4" response="0000001000000000" foes="0100001000001000" cont="0" />
        <request index="5" response="0000011000000111" foes="1100011000000111" cont="0" />
        <request index="6" response="0011011000000110" foes="0111111000000110" cont="1" />
        <request index="7" response="0010000100000100" foes="0010000100000100" cont="1" />
        <request index="8" response="0000000000000000" foes="0010000010000100" cont="0" />
        <request index="9" response="0100000001000000" foes="0110000001111100" cont="0" />
        <request index="10" response="0100000001000011" foes="1110000001100111" cont="1" />
        <request index="11" response="0001000001000010" foes="0001000001000010" cont="1" />
        <request index="12" response="0000000000000010" foes="0000100001000010" cont="0" />
        <request index="13" response="0000011100000110" foes="0000011111000110" cont="0" />
        <request index="14" response="0000011001110110" foes="0000011001111110" cont="1" />
        <request index="15" response="0000010000100001" foes="0000010000100001" cont="1" />
    </junction>
    <junction id="AA" type="traffic_light" x="159.16" y="502.61" z="8.24" incLanes="A2AA_0" intLanes=":AA_0_0" shape="159.16,502.61,8.24 159.16,505.81,8.24 159.16,502.61,8.24">
        <request index="0" response="0" foes="0" cont="0" />
    </junction>