<net xmlns:xsi="http://www.w3.org/2001/XMLSchema-instance" version="1.9" junctionCornerDetail="5" limitTurnSpeed="5.50" xsi:noNamespaceSchemaLocation="http://sumo.dlr.de/xsd/net_file.xsd">

    <location netOffset="318.90,637.79" convBoundary="0.00,0.00,637.79,1272.33" origBoundary="-318.90,-637.79,318.90,634.54" projParameter="!" />

    <edge id=":A_0" function="internal">
        <lane id=":A_0_0" index="0" speed="6.51" length="9.03" shape="310.90,968.66,1.16 310.55,966.21,1.16 309.50,964.46,1.16 307.75,963.41,1.16 305.30,963.06,1.16" />
    </edge>
    <edge id=":A_1" function="internal">
        <lane id=":A_1_0" index="0" speed="17.88" length="27.20" shape="310.90,968.66,1.16 310.90,941.46,1.11" />
        <lane id=":A_1_1" index="1" speed="17.88" length="27.20" shape="314.10,968.66,1.16 314.10,941.46,1.11" />
        <lane id=":A_1_2" index="2" speed="17.88" length="27.20" shape="317.30,968.66,1.16 317.30,941.46,1.11" />
    </edge>
    <edge id=":A_4" function="internal">
        <lane id=":A_4_0" index="0" speed="10.36" length="5.01" shape="317.30,968.66,1.16 318.01,963.70,1.16" />
    </edge>
    <edge id=":A_5" function="internal">
        <lane id=":A_5_0" index="0" speed="3.65" length="1.44" shape="317.30,968.66,1.16 318.10,967.46,1.16" />
    </edge>
    <edge id=":A_24" function="internal">
        <lane id=":A_24_0" index="0" speed="10.36" length="19.50" shape="318.01,963.70,1.16 318.25,962.01,1.16 321.10,957.26,1.16 325.85,954.41,1.16 332.50,953.46,1.16" />
    </edge>
    <edge id=":A_25" function="internal">
        <lane id=":A_25_0" index="0" speed="3.65" length="3.23" shape="318.10,967.46,1.16 318.90,967.06,1.16 319.70,967.46,1.16 320.50,968.66,1.16" />
    </edge>
    <edge id=":A_6" function="internal">
        <lane id=":A_6_0" index="0" speed="6.51" length="9.03" shape="332.50,963.06,1.16 330.05,963.41,1.16 328.30,964.46,1.16 327.25,966.21,1.16 326.90,968.66,1.16" />
    </edge>
    <edge id=":A_7" function="internal">
        <lane id=":A_7_0" index="0" speed="17.88" length="27.20" shape="332.50,963.06,1.16 305.30,963.06,1.16" />
        <lane id=":A_7_1" index="1" speed="17.88" length="27.20" shape="332.50,959.86,1.16 305.30,959.86,1.16" />
        <lane id=":A_7_2" index="2" speed="17.88" length="27.20" shape="332.50,956.66,1.16 305.30,956.66,1.16" />
    </edge>
    <edge id=":A_10" function="internal">
        <lane id=":A_10_0" index="0" speed="10.36" length="5.01" shape="332.50,956.66,1.16 327.53,955.95,1.15" />
    </edge>
    <edge id=":A_11" function="internal">
        <lane id=":A_11_0" index="0" speed="3.65" length="1.44" shape="332.50,956.66,1.16 331.30,955.86,1.16" />
    </edge>
    <edge id=":A_26" function="internal">
        <lane id=":A_26_0" index="0" speed="10.36" length="19.50" shape="327.53,955.95,1.15 325.85,955.71,1.15 321.10,952.86,1.14 318.25,948.11,1.12 317.30,941.46,1.11" />
    </edge>
    <edge id=":A_27" function="internal">
        <lane id=":A_27_0" index="0" speed="3.65" length="3.23" shape="331.30,955.86,1.16 330.90,955.06,1.16 331.30,954.26,1.16 332.50,953.46,1.16" />
    </edge>
    <edge id=":A_12" function="internal">
        <lane id=":A_12_0" index="0" speed="6.51" length="9.03" shape="326.90,941.46,1.11 327.25,943.91,1.12 328.30,945.66,1.14 330.05,946.71,1.15 332.50,947.06,1.16" />
    </edge>
    <edge id=":A_13" function="internal">
        <lane id=":A_13_0" index="0" speed="17.88" length="27.20" shape="326.90,941.46,1.11 326.90,968.66,1.16" />
        <lane id=":A_13_1" index="1" speed="17.88" length="27.20" shape="323.70,941.46,1.11 323.70,968.66,1.16" />
        <lane id=":A_13_2" index="2" speed="17.88" length="27.20" shape="320.50,941.46,1.11 320.50,968.66,1.16" />
    </edge>
    <edge id=":A_16" function="internal">
        <lane id=":A_16_0" index="0" speed="10.36" length="5.01" shape="320.50,941.46,1.11 319.79,946.43,1.12" />
    </edge>
    <edge id=":A_17" function="internal">
        <lane id=":A_17_0" index="0" speed="3.65" length="1.44" shape="320.50,941.46,1.11 319.70,942.66,1.11" />
    </edge>
    <edge id=":A_28" function="internal">
        <lane id=":A_28_0" index="0" speed="10.36" length="19.50" shape="319.79,946.43,1.12 319.55,948.11,1.12 316.70,952.86,1.14 311.95,955.71,1.15 305.30,956.66,1.16" />
    </edge>
    <edge id=":A_29" function="internal">
        <lane id=":A_29_0" index="0" speed="3.65" length="3.23" shape="319.70,942.66,1.11 318.90,943.06,1.11 318.10,942.66,1.11 317.30,941.46,1.11" />
    </edge>
    <edge id=":A_18" function="internal">
        <lane id=":A_18_0" index="0" speed="6.51" length="9.03" shape="305.30,947.06,1.16 307.75,946.71,1.15 309.50,945.66,1.14 310.55,943.91,1.12 310.90,941.46,1.11" />
    </edge>
    <edge id=":A_19" function="internal">
        <lane id=":A_19_0" index="0" speed="17.88" length="27.20" shape="305.30,947.06,1.16 332.50,947.06,1.16" />
        <lane id=":A_19_1" index="1" speed="17.88" length="27.20" shape="305.30,950.26,1.16 332.50,950.26,1.16" />
        <lane id=":A_19_2" index="2" speed="17.88" length="27.20" shape="305.30,953.46,1.16 332.50,953.46,1.16" />
    </edge>
    <edge id=":A_22" function="internal">
        <lane id=":A_22_0" index="0" speed="10.36" length="5.01" shape="305.30,953.46,1.16 310.26,954.17,1.16" />
    </edge>
    <edge id=":A_23" function="internal">
        <lane id=":A_23_0" index="0" speed="3.65" length="1.44" shape="305.30,953.46,1.16 306.50,954.26,1.16" />
    </edge>
    <edge id=":A_30" function="internal">
        <lane id=":A_30_0" index="0" speed="10.36" length="19.50" shape="310.26,954.17,1.16 311.95,954.41,1.16 316.70,957.26,1.16 319.55,962.01,1.16 320.50,968.66,1.16" />
    </edge>
    <edge id=":A_31" function="internal">
        <lane id=":A_31_0" index="0" speed="3.65" length="3.23" shape="306.50,954.26,1.16 306.90,955.06,1.16 306.50,955.86,1.16 305.30,956.66,1.16" />
    </edge>
    <edge id=":AA_0" function="internal">
        <lane id=":AA_0_0" index="0" speed="3.65" length="4.67" shape="1.63,956.66,1.16 0.43,955.86,1.16 0.03,955.06,1.16 0.43,954.26,1.16 1.63,953.46,1.16" />
    </edge>
    <edge id=":AB_0" function="internal">
        <lane id=":AB_0_0" index="0" speed="3.65" length="4.67" shape="320.50,1272.33,1.16 319.70,1273.53,1.16 318.90,1273.93,1.16 318.10,1273.53,1.16 317.30,1272.33,1.16" />
    </edge>
    <edge id=":AC_0" function="internal">
        <lane id=":AC_0_0" index="0" speed="3.65" length="4.67" shape="636.17,953.46,1.16 637.37,954.26,1.16 637.77,955.06,1.16 637.37,955.86,1.16 636.17,956.66,1.16" />
    </edge>
    <edge id=":B_0" function="internal">
        <lane id=":B_0_0" index="0" speed="6.51" length="9.03" shape="459.88,644.99,6.34 459.53,642.54,6.34 458.48,640.79,6.34 456.73,639.74,6.34 454.28,639.39,6.34" />
    </edge>
    <edge id=":B_1" function="internal">
        <lane id=":B_1_0" index="0" speed="11.18" length="14.40" shape="459.88,644.99,6.34 459.88,630.59,6.34" />
    </edge>
    <edge id=":B_2" function="internal">
        <lane id=":B_2_0" index="0" speed="8.00" length="4.07" shape="459.88,644.99,6.34 460.43,641.14,6.34 460.52,640.99,6.34" />
    </edge>
    <edge id=":B_3" function="internal">
        <lane id=":B_3_0" index="0" speed="3.65" length="1.44" shape="459.88,644.99,6.34 460.68,643.79,6.34" />
    </edge>
    <edge id=":B_16" function="internal">
        <lane id=":B_16_0" index="0" speed="8.00" length="10.13" shape="460.52,640.99,6.34 462.08,638.39,6.34 464.83,636.74,6.34 468.68,636.19,6.34" />
    </edge>
    <edge id=":B_17" function="internal">
        <lane id=":B_17_0" index="0" speed="3.65" length="3.23" shape="460.68,643.79,6.34 461.48,643.39,6.34 462.28,643.79,6.34 463.08,644.99,6.34" />
    </edge>
    <edge id=":B_4" function="internal">
        <lane id=":B_4_0" index="0" speed="6.51" length="9.03" shape="468.68,639.39,6.34 466.23,639.74,6.34 464.48,640.79,6.34 463.43,642.54,6.34 463.08,644.99,6.34" />
    </edge>
    <edge id=":B_5" function="internal">
        <lane id=":B_5_0" index="0" speed="11.18" length="14.40" shape="468.68,639.39,6.34 454.28,639.39,6.34" />
    </edge>
    <edge id=":B_6" function="internal">
        <lane id=":B_6_0" index="0" speed="8.00" length="4.07" shape="468.68,639.39,6.34 464.83,638.84,6.34 464.67,638.75,6.34" />
    </edge>
    <edge id=":B_7" function="internal">
        <lane id=":B_7_0" index="0" speed="3.65" length="1.44" shape="468.68,639.39,6.34 467.48,638.59,6.34" />
    </edge>
    <edge id=":B_18" function="internal">
        <lane id=":B_18_0" index="0" speed="8.00" length="10.13" shape="464.67,638.75,6.34 462.08,637.19,6.34 460.43,634.44,6.34 459.88,630.59,6.34" />
    </edge>
    <edge id=":B_19" function="internal">
        <lane id=":B_19_0" index="0" speed="3.65" length="3.23" shape="467.48,638.59,6.34 467.08,637.79,6.34 467.48,636.99,6.34 468.68,636.19,6.34" />
    </edge>
    <edge id=":B_8" function="internal">
        <lane id=":B_8_0" index="0" speed="6.51" length="9.03" shape="463.08,630.59,6.34 463.43,633.04,6.34 464.48,634.79,6.34 466.23,635.84,6.34 468.68,636.19,6.34" />
    </edge>
    <edge id=":B_9" function="internal">
        <lane id=":B_9_0" index="0" speed="11.18" length="14.40" shape="463.08,630.59,6.34 463.08,644.99,6.34" />
    </edge>
    <edge id=":B_10" function="internal">
        <lane id=":B_10_0" index="0" speed="8.00" length="4.07" shape="463.08,630.59,6.34 462.53,634.44,6.34 462.44,634.60,6.34" />
    </edge>
    <edge id=":B_11" function="internal">
        <lane id=":B_11_0" index="0" speed="3.65" length="1.44" shape="463.08,630.59,6.34 462.28,631.79,6.34" />
    </edge>
    <edge id=":B_20" function="internal">
        <lane id=":B_20_0" index="0" speed="8.00" length="10.13" shape="462.44,634.60,6.34 460.88,637.19,6.34 458.13,638.84,6.34 454.28,639.39,6.34" />
    </edge>
    <edge id=":B_21" function="internal">
        <lane id=":B_21_0" index="0" speed="3.65" length="3.23" shape="462.28,631.79,6.34 461.48,632.19,6.34 460.68,631.79,6.34 459.88,630.59,6.34" />
    </edge>
    <edge id=":B_12" function="internal">
        <lane id=":B_12_0" index="0" speed="6.51" length="9.03" shape="454.28,636.19,6.34 456.73,635.84,6.34 458.48,634.79,6.34 459.53,633.04,6.34 459.88,630.59,6.34" />
    </edge>
    <edge id=":B_13" function="internal">
        <lane id=":B_13_0" index="0" speed="11.18" length="14.40" shape="454.28,636.19,6.34 468.68,636.19,6.34" />
    </edge>
    <edge id=":B_14" function="internal">
        <lane id=":B_14_0" index="0" speed="8.00" length="4.07" shape="454.28,636.19,6.34 458.13,636.74,6.34 458.28,636.83,6.34" />
    </edge>
    <edge id=":B_15" function="internal">
        <lane id=":B_15_0" index="0" speed="3.65" length="1.44" shape="454.28,636.19,6.34 455.48,636.99,6.34" />
    </edge>
    <edge id=":B_22" function="internal">
        <lane id=":B_22_0" index="0" speed="8.00" length="10.13" shape="458.28,636.83,6.34 460.88,638.39,6.34 462.53,641.14,6.34 463.08,644.99,6.34" />
    </edge>
    <edge id=":B_23" function="internal">
        <lane id=":B_23_0" index="0" speed="3.65" length="3.23" shape="455.48,636.99,6.34 455.88,637.79,6.34 455.48,638.59,6.34 454.28,639.39,6.34" />
    </edge>
    <edge id=":BA_0" function="internal">
        <lane id=":BA_0_0" index="0" speed="3.65" length="4.67" shape="463.08,780.37,6.34 462.28,781.57,6.34 461.48,781.97,6.34 460.68,781.57,6.34 459.88,780.37,6.34" />
    </edge>
    <edge id=":BB_0" function="internal">
        <lane id=":BB_0_0" index="0" speed="3.65" length="4.67" shape="604.06,636.19,6.34 605.26,636.99,6.34 605.66,637.79,6.34 605.26,638.59,6.34 604.06,639.39,6.34" />
    </edge>
    <edge id=":BC_0" function="internal">
        <lane id=":BC_0_0" index="0" speed="3.65" length="4.67" shape="459.88,495.21,6.34 460.68,494.01,6.34 461.48,493.61,6.34 462.28,494.01,6.34 463.08,495.21,6.34" />
    </edge>
    <edge id=":C_0" function="internal">
        <lane id=":C_0_0" index="0" speed="6.51" length="9.03" shape="310.90,332.50,-1.02 310.55,330.05,-1.04 309.50,328.30,-1.05 307.75,327.25,-1.06 305.30,326.90,-1.07" />
    </edge>
    <edge id=":C_1" function="internal">
        <lane id=":C_1_0" index="0" speed="17.88" length="27.20" shape="310.90,332.50,-1.02 310.90,305.30,-1.07" />
        <lane id=":C_1_1" index="1" speed="17.88" length="27.20" shape="314.10,332.50,-1.02 314.10,305.30,-1.07" />
        <lane id=":C_1_2" index="2" speed="17.88" length="27.20" shape="317.30,332.50,-1.02 317.30,305.30,-1.07" />
    </edge>
    <edge id=":C_4" function="internal">
        <lane id=":C_4_0" index="0" speed="10.36" length="5.01" shape="317.30,332.50,-1.02 318.01,327.53,-1.03" />
    </edge>
    <edge id=":C_5" function="internal">
        <lane id=":C_5_0" index="0" speed="3.65" length="1.44" shape="317.30,332.50,-1.02 318.10,331.30,-1.02" />
    </edge>
    <edge id=":C_24" function="internal">
        <lane id=":C_24_0" index="0" speed="10.36" length="19.50" shape="318.01,327.53,-1.03 318.25,325.85,-1.04 321.10,321.10,-1.05 325.85,318.25,-1.06 332.50,317.30,-1.07" />
    </edge>
    <edge id=":C_25" function="internal">
        <lane id=":C_25_0" index="0" speed="3.65" length="3.23" shape="318.10,331.30,-1.02 318.90,330.90,-1.02 319.70,331.30,-1.02 320.50,332.50,-1.02" />
    </edge>
    <edge id=":C_6" function="internal">
        <lane id=":C_6_0" index="0" speed="6.51" length="9.03" shape="332.50,326.90,-1.07 330.05,327.25,-1.06 328.30,328.30,-1.05 327.25,330.05,-1.04 326.90,332.50,-1.02" />
    </edge>
    <edge id=":C_7" function="internal">
        <lane id=":C_7_0" index="0" speed="17.88" length="27.20" shape="332.50,326.90,-1.07 305.30,326.90,-1.07" />
        <lane id=":C_7_1" index="1" speed="17.88" length="27.20" shape="332.50,323.70,-1.07 305.30,323.70,-1.07" />
        <lane id=":C_7_2" index="2" speed="17.88" length="27.20" shape="332.50,320.50,-1.07 305.30,320.50,-1.07" />
    </edge>
    <edge id=":C_10" function="internal">
        <lane id=":C_10_0" index="0" speed="10.36" length="5.01" shape="332.50,320.50,-1.07 327.53,319.79,-1.07" />
    </edge>
    <edge id=":C_11" function="internal">
        <lane id=":C_11_0" index="0" speed="3.65" length="1.44" shape="332.50,320.50,-1.07 331.30,319.70,-1.07" />
    </edge>
    <edge id=":C_26" function="internal">
        <lane id=":C_26_0" index="0" speed="10.36" length="19.50" shape="327.53,319.79,-1.07 325.85,319.55,-1.07 321.10,316.70,-1.07 318.25,311.95,-1.07 317.30,305.30,-1.07" />
    </edge>
    <edge id=":C_27" function="internal">
        <lane id=":C_27_0" index="0" speed="3.65" length="3.23" shape="331.30,319.70,-1.07 330.90,318.90,-1.07 331.30,318.10,-1.07 332.50,317.30,-1.07" />
    </edge>
    <edge id=":C_12" function="internal">
        <lane id=":C_12_0" index="0" speed="6.51" length="9.03" shape="326.90,305.30,-1.07 327.25,307.75,-1.07 328.30,309.50,-1.07 330.05,310.55,-1.07 332.50,310.90,-1.07" />
    </edge>
    <edge id=":C_13" function="internal">
        <lane id=":C_13_0" index="0" speed="17.88" length="27.20" shape="326.90,305.30,-1.07 326.90,332.50,-1.02" />
        <lane id=":C_13_1" index="1" speed="17.88" length="27.20" shape="323.70,305.30,-1.07 323.70,332.50,-1.02" />
        <lane id=":C_13_2" index="2" speed="17.88" length="27.20" shape="320.50,305.30,-1.07 320.50,332.50,-1.02" />
    </edge>
    <edge id=":C_16" function="internal">
        <lane id=":C_16_0" index="0" speed="10.36" length="5.01" shape="320.50,305.30,-1.07 319.79,310.26,-1.07" />
    </edge>
    <edge id=":C_17" function="internal">
        <lane id=":C_17_0" index="0" speed="3.65" length="1.44" shape="320.50,305.30,-1.07 319.70,306.50,-1.07" />
    </edge>
    <edge id=":C_28" function="internal">
        <lane id=":C_28_0" index="0" speed="10.36" length="19.50" shape="319.79,310.26,-1.07 319.55,311.95,-1.07 316.70,316.70,-1.07 311.95,319.55,-1.07 305.30,320.50,-1.07" />
    </edge>
    <edge id=":C_29" function="internal">
        <lane id=":C_29_0" index="0" speed="3.65" length="3.23" shape="319.70,306.50,-1.07 318.90,306.90,-1.07 318.10,306.50,-1.07 317.30,305.30,-1.07" />
    </edge>
    <edge id=":C_18" function="internal">
        <lane id=":C_18_0" index="0" speed="6.51" length="9.03" shape="305.30,310.90,-1.07 307.75,310.55,-1.07 309.50,309.50,-1.07 310.55,307.75,-1.07 310.90,305.30,-1.07" />
    </edge>
    <edge id=":C_19" function="internal">
        <lane id=":C_19_0" index="0" speed="17.88" length="27.20" shape="305.30,310.90,-1.07 332.50,310.90,-1.07" />
        <lane id=":C_19_1" index="1" speed="17.88" length="27.20" shape="305.30,314.10,-1.07 332.50,314.10,-1.07" />
        <lane id=":C_19_2" index="2" speed="17.88" length="27.20" shape="305.30,317.30,-1.07 332.50,317.30,-1.07" />
    </edge>
    <edge id=":C_22" function="internal">
        <lane id=":C_22_0" index="0" speed="10.36" length="5.01" shape="305.30,317.30,-1.07 310.26,318.01,-1.06" />
    </edge>
    <edge id=":C_23" function="internal">
        <lane id=":C_23_0" index="0" speed="3.65" length="1.44" shape="305.30,317.30,-1.07 306.50,318.10,-1.07" />
    </edge>
    <edge id=":C_30" function="internal">
        <lane id=":C_30_0" index="0" speed="10.36" length="19.50" shape="310.26,318.01,-1.06 311.95,318.25,-1.06 316.70,321.10,-1.05 319.55,325.85,-1.04 320.50,332.50,-1.02" />
    </edge>
    <edge id=":C_31" function="internal">
        <lane id=":C_31_0" index="0" speed="3.65" length="3.23" shape="306.50,318.10,-1.07 306.90,318.90,-1.07 306.50,319.70,-1.07 305.30,320.50,-1.07" />
    </edge>
    <edge id=":CA_0" function="internal">
        <lane id=":CA_0_0" index="0" speed="3.65" length="4.67" shape="637.79,317.30,-1.07 638.99,318.10,-1.07 639.39,318.90,-1.07 638.99,319.70,-1.07 637.79,320.50,-1.07" />
    </edge>
    <edge id=":CB_0" function="internal">
        <lane id=":CB_0_0" index="0" speed="3.65" length="4.67" shape="317.30,-0.00,-1.07 318.10,-1.20,-1.07 318.90,-1.60,-1.07 319.70,-1.20,-1.07 320.50,0.00,-1.07" />
    </edge>
    <edge id=":CC_0" function="internal">
        <lane id=":CC_0_0" index="0" speed="3.65" length="4.67" shape="-0.00,320.50,-1.07 -1.20,319.70,-1.07 -1.60,318.90,-1.07 -1.20,318.10,-1.07 0.00,317.30,-1.07" />
    </edge>
    <edge id=":D_0" function="internal">
        <lane id=":D_0_0" index="0" speed="6.51" length="9.03" shape="165.20,644.99,6.77 164.85,642.54,6.77 163.80,640.79,6.77 162.05,639.74,6.77 159.60,639.39,6.77" />
    </edge>
    <edge id=":D_1" function="internal">
        <lane id=":D_1_0" index="0" speed="11.18" length="14.40" shape="165.20,644.99,6.77 165.20,630.59,6.77" />
    </edge>
    <edge id=":D_2" function="internal">
        <lane id=":D_2_0" index="0" speed="8.00" length="4.07" shape="165.20,644.99,6.77 165.75,641.14,6.77 165.84,640.99,6.77" />
    </edge>
    <edge id=":D_3" function="internal">
        <lane id=":D_3_0" index="0" speed="3.65" length="1.44" shape="165.20,644.99,6.77 166.00,643.79,6.77" />
    </edge>
    <edge id=":D_16" function="internal">
        <lane id=":D_16_0" index="0" speed="8.00" length="10.13" shape="165.84,640.99,6.77 167.40,638.39,6.77 170.15,636.74,6.77 174.00,636.19,6.77" />
    </edge>
    <edge id=":D_17" function="internal">
        <lane id=":D_17_0" index="0" speed="3.65" length="3.23" shape="166.00,643.79,6.77 166.80,643.39,6.77 167.60,643.79,6.77 168.40,644.99,6.77" />
    </edge>
    <edge id=":D_4" function="internal">
        <lane id=":D_4_0" index="0" speed="6.51" length="9.03" shape="174.00,639.39,6.77 171.55,639.74,6.77 169.80,640.79,6.77 168.75,642.54,6.77 168.40,644.99,6.77" />
    </edge>
    <edge id=":D_5" function="internal">
        <lane id=":D_5_0" index="0" speed="11.18" length="14.40" shape="174.00,639.39,6.77 159.60,639.39,6.77" />
    </edge>
    <edge id=":D_6" function="internal">
        <lane id=":D_6_0" index="0" speed="8.00" length="4.07" shape="174.00,639.39,6.77 170.15,638.84,6.77 170.00,638.75,6.77" />
    </edge>
    <edge id=":D_7" function="internal">
        <lane id=":D_7_0" index="0" speed="3.65" length="1.44" shape="174.00,639.39,6.77 172.80,638.59,6.77" />
    </edge>
    <edge id=":D_18" function="internal">
        <lane id=":D_18_0" index="0" speed="8.00" length="10.13" shape="170.00,638.75,6.77 167.40,637.19,6.77 165.75,634.44,6.77 165.20,630.59,6.77" />
    </edge>
    <edge id=":D_19" function="internal">
        <lane id=":D_19_0" index="0" speed="3.65" length="3.23" shape="172.80,638.59,6.77 172.40,637.79,6.77 172.80,636.99,6.77 174.00,636.19,6.77" />
    </edge>
    <edge id=":D_8" function="internal">
        <lane id=":D_8_0" index="0" speed="6.51" length="9.03" shape="168.40,630.59,6.77 168.75,633.04,6.77 169.80,634.79,6.77 171.55,635.84,6.77 174.00,636.19,6.77" />
    </edge>
    <edge id=":D_9" function="internal">
        <lane id=":D_9_0" index="0" speed="11.18" length="14.40" shape="168.40,630.59,6.77 168.40,644.99,6.77" />
    </edge>
    <edge id=":D_10" function="internal">
        <lane id=":D_10_0" index="0" speed="8.00" length="4.07" shape="168.40,630.59,6.77 167.85,634.44,6.77 167.76,634.60,6.77" />
    </edge>
    <edge id=":D_11" function="internal">
        <lane id=":D_11_0" index="0" speed="3.65" length="1.44" shape="168.40,630.59,6.77 167.60,631.79,6.77" />
    </edge>
    <edge id=":D_20" function="internal">
        <lane id=":D_20_0" index="0" speed="8.00" length="10.13" shape="167.76,634.60,6.77 166.20,637.19,6.77 163.45,638.84,6.77 159.60,639.39,6.77" />
    </edge>
    <edge id=":D_21" function="internal">
        <lane id=":D_21_0" index="0" speed="3.65" length="3.23" shape="167.60,631.79,6.77 166.80,632.19,6.77 166.00,631.79,6.77 165.20,630.59,6.77" />
    </edge>
    <edge id=":D_12" function="internal">
        <lane id=":D_12_0" index="0" speed="6.51" length="9.03" shape="159.60,636.19,6.77 162.05,635.84,6.77 163.80,634.79,6.77 164.85,633.04,6.77 165.20,630.59,6.77" />
    </edge>
    <edge id=":D_13" function="internal">
        <lane id=":D_13_0" index="0" speed="11.18" length="14.40" shape="159.60,636.19,6.77 174.00,636.19,6.77" />
    </edge>
    <edge id=":D_14" function="internal">
        <lane id=":D_14_0" index="0" speed="8.00" length="4.07" shape="159.60,636.19,6.77 163.45,636.74,6.77 163.60,636.83,6.77" />
    </edge>
    <edge id=":D_15" function="internal">
        <lane id=":D_15_0" index="0" speed="3.65" length="1.44" shape="159.60,636.19,6.77 160.80,636.99,6.77" />
    </edge>
    <edge id=":D_22" function="internal">
        <lane id=":D_22_0" index="0" speed="8.00" length="10.13" shape="163.60,636.83,6.77 166.20,638.39,6.77 167.85,641.14,6.77 168.40,644.99,6.77" />
    </edge>
    <edge id=":D_23" function="internal">
        <lane id=":D_23_0" index="0" speed="3.65" length="3.23" shape="160.80,636.99,6.77 161.20,637.79,6.77 160.80,638.59,6.77 159.60,639.39,6.77" />
    </edge>
    <edge id=":DA_0" function="internal">
        <lane id=":DA_0_0" index="0" speed="3.65" length="4.67" shape="165.20,485.70,6.77 166.00,484.50,6.77 166.80,484.10,6.77 167.60,484.50,6.77 168.40,485.70,6.77" />
    </edge>
    <edge id=":DB_0" function="internal">
        <lane id=":DB_0_0" index="0" speed="3.65" length="4.67" shape="14.70,639.39,6.77 13.50,638.59,6.77 13.10,637.79,6.77 13.50,636.99,6.77 14.70,636.19,6.77" />
    </edge>
    <edge id=":DC_0" function="internal">
        <lane id=":DC_0_0" index="0" speed="3.65" length="4.67" shape="168.40,789.89,6.77 167.60,791.09,6.77 166.80,791.49,6.77 166.00,791.09,6.77 165.20,789.89,6.77" />
    </edge>
    <edge id=":TL_0" function="internal">
        <lane id=":TL_0_0" index="0" speed="6.51" length="9.03" shape="310.90,644.99,0.03 310.55,642.54,0.02 309.50,640.79,0.01 307.75,639.74,0.01 305.30,639.39" />
    </edge>
    <edge id=":TL_1" function="internal">
        <lane id=":TL_1_0" index="0" speed="17.88" length="14.40" shape="310.90,644.99,0.03 310.90,630.59,-0.02" />
        <lane id=":TL_1_1" index="1" speed="17.88" length="14.40" shape="314.10,644.99,0.03 314.10,630.59,-0.02" />
        <lane id=":TL_1_2" index="2" speed="17.88" length="14.40" shape="317.30,644.99,0.03 317.30,630.59,-0.02" />
    </edge>
    <edge id=":TL_4" function="internal">
        <lane id=":TL_4_0" index="0" speed="9.32" length="3.03" shape="317.30,644.99,0.03 318.02,642.05,0.02" />
    </edge>
    <edge id=":TL_14" function="internal">
        <lane id=":TL_14_0" index="0" speed="9.32" length="16.60" shape="318.02,642.05,0.02 318.25,641.14,0.02 321.10,638.39,0.02 325.85,636.74,0.01 332.50,636.19" />
    </edge>
    <edge id=":TL_5" function="internal">
        <lane id=":TL_5_0" index="0" speed="6.51" length="9.03" shape="332.50,639.39 330.05,639.74,0.01 328.30,640.79,0.01 327.25,642.54,0.02 326.90,644.99,0.03" />
    </edge>
    <edge id=":TL_6" function="internal">
        <lane id=":TL_6_0" index="0" speed="11.18" length="27.20" shape="332.50,639.39 305.30,639.39" />
    </edge>
    <edge id=":TL_7" function="internal">
        <lane id=":TL_7_0" index="0" speed="6.51" length="9.03" shape="326.90,630.59,-0.02 327.25,633.04,-0.02 328.30,634.79,-0.01 330.05,635.84,-0.01 332.50,636.19" />
    </edge>
    <edge id=":TL_8" function="internal">
        <lane id=":TL_8_0" index="0" speed="17.88" length="14.40" shape="326.90,630.59,-0.02 326.90,644.99,0.03" />
        <lane id=":TL_8_1" index="1" speed="17.88" length="14.40" shape="323.70,630.59,-0.02 323.70,644.99,0.03" />
        <lane id=":TL_8_2" index="2" speed="17.88" length="14.40" shape="320.50,630.59,-0.02 320.50,644.99,0.03" />
    </edge>
    <edge id=":TL_11" function="internal">
        <lane id=":TL_11_0" index="0" speed="9.32" length="3.03" shape="320.50,630.59,-0.02 319.77,633.54,-0.02" />
    </edge>
    <edge id=":TL_15" function="internal">
        <lane id=":TL_15_0" index="0" speed="9.32" length="16.60" shape="319.77,633.54,-0.02 319.55,634.44,-0.02 316.70,637.19,-0.01 311.95,638.84,-0.01 305.30,639.39" />
    </edge>
    <edge id=":TL_12" function="internal">
        <lane id=":TL_12_0" index="0" speed="6.51" length="9.03" shape="305.30,636.19 307.75,635.84,-0.01 309.50,634.79,-0.01 310.55,633.04,-0.02 310.90,630.59,-0.02" />
    </edge>
    <edge id=":TL_13" function="internal">
        <lane id=":TL_13_0" index="0" speed="11.18" length="27.20" shape="305.30,636.19 332.50,636.19" />
    </edge>

    <edge id="A2AA" from="A" to="AA" priority="-1">
        <lane id="A2AA_0" index="0" speed="17.88" length="303.67" shape="305.30,963.06,1.16 1.63,963.06,1.16" />
        <lane id="A2AA_1" index="1" speed="17.88" length="303.67" shape="305.30,959.86,1.16 1.63,959.86,1.16" />
        <lane id="A2AA_2" index="2" speed="17.88" length="303.67" shape="305.30,956.66,1.16 1.63,956.66,1.16" />
    </edge>
    <edge id="A2AB" from="A" to="AB" priority="-1">
        <lane id="A2AB_0" index="0" speed="17.88" length="303.67" shape="326.90,968.66,1.16 326.90,1272.33,1.16" />
        <lane id="A2AB_1" index="1" speed="17.88" length="303.67" shape="323.70,968.66,1.16 323.70,1272.33,1.16" />
        <lane id="A2AB_2" index="2" speed="17.88" length="303.67" shape="320.50,968.66,1.16 320.50,1272.33,1.16" />
    </edge>
    <edge id="A2AC" from="A" to="AC" priority="-1">
        <lane id="A2AC_0" index="0" speed="17.88" length="303.67" shape="332.50,947.06,1.16 636.17,947.06,1.16" />
        <lane id="A2AC_1" index="1" speed="17.88" length="303.67" shape="332.50,950.26,1.16 636.17,950.26,1.16" />
        <lane id="A2AC_2" index="2" speed="17.88" length="303.67" shape="332.50,953.46,1.16 636.17,953.46,1.16" />
    </edge>
    <edge id="A2TL" from="A" to="TL" priority="-1">
        <lane id="A2TL_0" index="0" speed="17.88" length="296.47" shape="310.90,941.46,1.11 310.90,644.99,0.03" />
        <lane id="A2TL_1" index="1" speed="17.88" length="296.47" shape="314.10,941.46,1.11 314.10,644.99,0.03" />
        <lane id="A2TL_2" index="2" speed="17.88" length="296.47" shape="317.30,941.46,1.11 317.30,644.99,0.03" />
    </edge>
    <edge id="AA2A" from="AA" to="A" priority="-1">
        <lane id="AA2A_0" index="0" speed="17.88" length="303.67" shape="1.63,947.06,1.16 305.30,947.06,1.16" />
        <lane id="AA2A_1" index="1" speed="17.88" length="303.67" shape="1.63,950.26,1.16 305.30,950.26,1.16" />
        <lane id="AA2A_2" index="2" speed="17.88" length="303.67" shape="1.63,953.46,1.16 305.30,953.46,1.16" />
    </edge>
    <edge id="AB2A" from="AB" to="A" priority="-1">
        <lane id="AB2A_0" index="0" speed="17.88" length="303.67" shape="310.90,1272.33,1.16 310.90,968.66,1.16" />
        <lane id="AB2A_1" index="1" speed="17.88" length="303.67" shape="314.10,1272.33,1.16 314.10,968.66,1.16" />
        <lane id="AB2A_2" index="2" speed="17.88" length="303.67" shape="317.30,1272.33,1.16 317.30,968.66,1.16" />
    </edge>
    <edge id="AC2A" from="AC" to="A" priority="-1">
        <lane id="AC2A_0" index="0" speed="17.88" length="303.67" shape="636.17,963.06,1.16 332.50,963.06,1.16" />
        <lane id="AC2A_1" index="1" speed="17.88" length="303.67" shape="636.17,959.86,1.16 332.50,959.86,1.16" />
        <lane id="AC2A_2" index="2" speed="17.88" length="303.67" shape="636.17,956.66,1.16 332.50,956.66,1.16" />
    </edge>
    <edge id="B2BA" from="B" to="BA" priority="-1">
        <lane id="B2BA_0" index="0" speed="11.18" length="135.38" shape="463.08,644.99,6.34 463.08,780.37,6.34" />
    </edge>
    <edge id="B2BB" from="B" to="BB" priority="-1">
        <lane id="B2BB_0" index="0" speed="11.18" length="135.38" shape="468.68,636.19,6.34 604.06,636.19,6.34" />
    </edge>
    <edge id="B2BC" from="B" to="BC" priority="-1">
        <lane id="B2BC_0" index="0" speed="11.18" length="135.38" shape="459.88,630.59,6.34 459.88,495.21,6.34" />
    </edge>
    <edge id="B2TL" from="B" to="TL" priority="-1">
        <lane id="B2TL_0" index="0" speed="11.18" length="121.94" shape="454.28,639.39,6.34 332.50,639.39" />
    </edge>
    <edge id="BA2B" from="BA" to="B" priority="-1">
        <lane id="BA2B_0" index="0" speed="11.18" length="135.38" shape="459.88,780.37,6.34 459.88,644.99,6.34" />
    </edge>