<net xmlns:xsi="http://www.w3.org/2001/XMLSchema-instance" version="1.9" junctionCornerDetail="5" limitTurnSpeed="5.50" xsi:noNamespaceSchemaLocation="http://sumo.dlr.de/xsd/net_file.xsd">

    <location netOffset="621.51,628.39" convBoundary="0.00,0.00,1237.56,1217.69" origBoundary="-621.51,-628.39,616.05,589.31" projParameter="!" />

    <edge id=":A_0" function="internal">
        <lane id=":A_0_0" index="0" speed="6.51" length="9.03" shape="616.71,933.44,3.32 616.36,930.99,3.32 615.31,929.24,3.32 613.56,928.19,3.32 611.11,927.84,3.32" />
    </edge>
    <edge id=":A_1" function="internal">
        <lane id=":A_1_0" index="0" speed="11.18" length="20.80" shape="616.71,933.44,3.32 616.71,912.64,3.21" />
        <lane id=":A_1_1" index="1" speed="11.18" length="20.80" shape="619.91,933.44,3.32 619.91,912.64,3.21" />
    </edge>
    <edge id=":A_3" function="internal">
        <lane id=":A_3_0" index="0" speed="9.26" length="5.01" shape="619.91,933.44,3.32 620.62,928.48,3.32" />
    </edge>
    <edge id=":A_4" function="internal">
        <lane id=":A_4_0" index="0" speed="3.65" length="1.44" shape="619.91,933.44,3.32 620.71,932.24,3.32" />
    </edge>
    <edge id=":A_20" function="internal">
        <lane id=":A_20_0" index="0" speed="9.26" length="14.34" shape="620.62,928.48,3.32 620.66,928.19,3.32 622.91,924.44,3.32 626.66,922.19,3.32 631.91,921.44,3.32" />
    </edge>
    <edge id=":A_21" function="internal">
        <lane id=":A_21_0" index="0" speed="3.65" length="3.23" shape="620.71,932.24,3.32 621.51,931.84,3.32 622.31,932.24,3.32 623.11,933.44,3.32" />
    </edge>
    <edge id=":A_5" function="internal">
        <lane id=":A_5_0" index="0" speed="6.51" length="9.03" shape="631.91,927.84,3.32 629.46,928.19,3.32 627.71,929.24,3.32 626.66,930.99,3.32 626.31,933.44,3.32" />
    </edge>
    <edge id=":A_6" function="internal">
        <lane id=":A_6_0" index="0" speed="11.18" length="20.80" shape="631.91,927.84,3.32 611.11,927.84,3.32" />
        <lane id=":A_6_1" index="1" speed="11.18" length="20.80" shape="631.91,924.64,3.32 611.11,924.64,3.32" />
    </edge>
    <edge id=":A_8" function="internal">
        <lane id=":A_8_0" index="0" speed="9.26" length="5.01" shape="631.91,924.64,3.32 626.95,923.93,3.29" />
    </edge>
    <edge id=":A_9" function="internal">
        <lane id=":A_9_0" index="0" speed="3.65" length="1.44" shape="631.91,924.64,3.32 630.71,923.84,3.32" />
    </edge>
    <edge id=":A_22" function="internal">
        <lane id=":A_22_0" index="0" speed="9.26" length="14.34" shape="626.95,923.93,3.29 626.66,923.89,3.29 622.91,921.64,3.26 620.66,917.89,3.24 619.91,912.64,3.21" />
    </edge>
    <edge id=":A_23" function="internal">
        <lane id=":A_23_0" index="0" speed="3.65" length="3.23" shape="630.71,923.84,3.32 630.31,923.04,3.32 630.71,922.24,3.32 631.91,921.44,3.32" />
    </edge>
    <edge id=":A_10" function="internal">
        <lane id=":A_10_0" index="0" speed="6.51" length="9.03" shape="626.31,912.64,3.21 626.66,915.09,3.24 627.71,916.84,3.26 629.46,917.89,3.29 631.91,918.24,3.32" />
    </edge>
    <edge id=":A_11" function="internal">
        <lane id=":A_11_0" index="0" speed="11.18" length="20.80" shape="626.31,912.64,3.21 626.31,933.44,3.32" />
        <lane id=":A_11_1" index="1" speed="11.18" length="20.80" shape="623.11,912.64,3.21 623.11,933.44,3.32" />
    </edge>
    <edge id=":A_13" function="internal">
        <lane id=":A_13_0" index="0" speed="9.26" length="5.01" shape="623.11,912.64,3.21 622.40,917.60,3.24" />
    </edge>
    <edge id=":A_14" function="internal">
        <lane id=":A_14_0" index="0" speed="3.65" length="1.44" shape="623.11,912.64,3.21 622.31,913.84,3.21" />
    </edge>
    <edge id=":A_24" function="internal">
        <lane id=":A_24_0" index="0" speed="9.26" length="14.34" shape="622.40,917.60,3.24 622.36,917.89,3.24 620.11,921.64,3.26 616.36,923.89,3.29 611.11,924.64,3.32" />
    </edge>
    <edge id=":A_25" function="internal">
        <lane id=":A_25_0" index="0" speed="3.65" length="3.23" shape="622.31,913.84,3.21 621.51,914.24,3.21 620.71,913.84,3.21 619.91,912.64,3.21" />
    </edge>
    <edge id=":A_15" function="internal">
        <lane id=":A_15_0" index="0" speed="6.51" length="9.03" shape="611.11,918.24,3.32 613.56,917.89,3.29 615.31,916.84,3.26 616.36,915.09,3.24 616.71,912.64,3.21" />
    </edge>
    <edge id=":A_16" function="internal">
        <lane id=":A_16_0" index="0" speed="11.18" length="20.80" shape="611.11,918.24,3.32 631.91,918.24,3.32" />
        <lane id=":A_16_1" index="1" speed="11.18" length="20.80" shape="611.11,921.44,3.32 631.91,921.44,3.32" />
    </edge>
    <edge id=":A_18" function="internal">
        <lane id=":A_18_0" index="0" speed="9.26" length="5.01" shape="611.11,921.44,3.32 616.07,922.15,3.32" />
    </edge>
    <edge id=":A_19" function="internal">
        <lane id=":A_19_0" index="0" speed="3.65" length="1.44" shape="611.11,921.44,3.32 612.31,922.24,3.32" />
    </edge>
    <edge id=":A_26" function="internal">
        <lane id=":A_26_0" index="0" speed="9.26" length="14.34" shape="616.07,922.15,3.32 616.36,922.19,3.32 620.11,924.44,3.32 622.36,928.19,3.32 623.11,933.44,3.32" />
    </edge>
    <edge id=":A_27" function="internal">
        <lane id=":A_27_0" index="0" speed="3.65" length="3.23" shape="612.31,922.24,3.32 612.71,923.04,3.32 612.31,923.84,3.32 611.11,924.64,3.32" />
    </edge>
    <edge id=":AA_0" function="internal">
        <lane id=":AA_0_0" index="0" speed="3.65" length="4.67" shape="326.86,924.64,3.32 325.66,923.84,3.32 325.26,923.04,3.32 325.66,922.24,3.32 326.86,921.44,3.32" />
    </edge>
    <edge id=":AB_0" function="internal">
        <lane id=":AB_0_0" index="0" speed="3.65" length="4.67" shape="623.11,1217.69,3.32 622.31,1218.89,3.32 621.51,1219.29,3.32 620.71,1218.89,3.32 619.91,1217.69,3.32" />
    </edge>
    <edge id=":AC_0" function="internal">
        <lane id=":AC_0_0" index="0" speed="3.65" length="4.67" shape="916.17,921.44,3.32 917.37,922.24,3.32 917.77,923.04,3.32 917.37,923.84,3.32 916.17,924.64,3.32" />
    </edge>
    <edge id=":A_intern_0" function="internal">
        <lane id=":A_intern_0_0" index="0" speed="11.18" length="8.54" shape="616.71,682.39,0.61 616.21,679.93,0.58 615.11,678.39,0.56 614.01,676.85,0.54 613.51,674.39,0.52" />
        <lane id=":A_intern_0_1" index="1" speed="11.18" length="8.54" shape="619.91,682.39,0.61 619.41,679.93,0.58 618.31,678.39,0.56 617.21,676.85,0.54 616.71,674.39,0.52" />
        <lane id=":A_intern_0_2" index="2" speed="11.18" length="8.54" shape="619.91,682.39,0.61 619.91,674.39,0.52" />
    </edge>
    <edge id=":B_0" function="internal">
        <lane id=":B_0_0" index="0" speed="6.51" length="9.03" shape="927.94,635.59,1.50 927.59,633.14,1.49 926.54,631.39,1.48 924.79,630.34,1.48 922.34,629.99,1.47" />
    </edge>
    <edge id=":B_1" function="internal">
        <lane id=":B_1_0" index="0" speed="8.94" length="14.40" shape="927.94,635.59,1.50 927.94,621.19,1.50" />
    </edge>
    <edge id=":B_2" function="internal">
        <lane id=":B_2_0" index="0" speed="8.00" length="4.07" shape="927.94,635.59,1.50 928.49,631.74,1.50 928.58,631.58,1.50" />
    </edge>
    <edge id=":B_3" function="internal">
        <lane id=":B_3_0" index="0" speed="3.65" length="1.44" shape="927.94,635.59,1.50 928.74,634.39,1.50" />
    </edge>
    <edge id=":B_16" function="internal">
        <lane id=":B_16_0" index="0" speed="8.00" length="10.13" shape="928.58,631.58,1.50 930.14,628.99,1.50 932.89,627.34,1.50 936.74,626.79,1.50" />
    </edge>
    <edge id=":B_17" function="internal">
        <lane id=":B_17_0" index="0" speed="3.65" length="3.23" shape="928.74,634.39,1.50 929.54,633.99,1.50 930.34,634.39,1.50 931.14,635.59,1.50" />
    </edge>
    <edge id=":B_4" function="internal">
        <lane id=":B_4_0" index="0" speed="6.51" length="9.03" shape="936.74,629.99,1.50 934.29,630.34,1.50 932.54,631.39,1.50 931.49,633.14,1.50 931.14,635.59,1.50" />
    </edge>
    <edge id=":B_5" function="internal">
        <lane id=":B_5_0" index="0" speed="8.94" length="14.40" shape="936.74,629.99,1.50 922.34,629.99,1.47" />
    </edge>
    <edge id=":B_6" function="internal">
        <lane id=":B_6_0" index="0" speed="8.00" length="4.07" shape="936.74,629.99,1.50 932.89,629.44,1.50 932.73,629.35,1.50" />
    </edge>
    <edge id=":B_7" function="internal">
        <lane id=":B_7_0" index="0" speed="3.65" length="1.44" shape="936.74,629.99,1.50 935.54,629.19,1.50" />
    </edge>
    <edge id=":B_18" function="internal">
        <lane id=":B_18_0" index="0" speed="8.00" length="10.13" shape="932.73,629.35,1.50 930.14,627.79,1.50 928.49,625.04,1.50 927.94,621.19,1.50" />
    </edge>
    <edge id=":B_19" function="internal">
        <lane id=":B_19_0" index="0" speed="3.65" length="3.23" shape="935.54,629.19,1.50 935.14,628.39,1.50 935.54,627.59,1.50 936.74,626.79,1.50" />
    </edge>
    <edge id=":B_8" function="internal">
        <lane id=":B_8_0" index="0" speed="6.51" length="9.03" shape="931.14,621.19,1.50 931.49,623.64,1.50 932.54,625.39,1.50 934.29,626.44,1.50 936.74,626.79,1.50" />
    </edge>
    <edge id=":B_9" function="internal">
        <lane id=":B_9_0" index="0" speed="8.94" length="14.40" shape="931.14,621.19,1.50 931.14,635.59,1.50" />
    </edge>
    <edge id=":B_10" function="internal">
        <lane id=":B_10_0" index="0" speed="8.00" length="4.07" shape="931.14,621.19,1.50 930.59,625.04,1.49 930.50,625.19,1.49" />
    </edge>
    <edge id=":B_11" function="internal">
        <lane id=":B_11_0" index="0" speed="3.65" length="1.44" shape="931.14,621.19,1.50 930.34,622.39,1.50" />
    </edge>
    <edge id=":B_20" function="internal">
        <lane id=":B_20_0" index="0" speed="8.00" length="10.13" shape="930.50,625.19,1.49 928.94,627.79,1.48 926.19,629.44,1.48 922.34,629.99,1.47" />
    </edge>
    <edge id=":B_21" function="internal">
        <lane id=":B_21_0" index="0" speed="3.65" length="3.23" shape="930.34,622.39,1.50 929.54,622.79,1.50 928.74,622.39,1.50 927.94,621.19,1.50" />
    </edge>
    <edge id=":B_12" function="internal">
        <lane id=":B_12_0" index="0" speed="6.51" length="9.03" shape="922.34,626.79,1.47 924.79,626.44,1.48 926.54,625.39,1.48 927.59,623.64,1.49 927.94,621.19,1.50" />
    </edge>
    <edge id=":B_13" function="internal">
        <lane id=":B_13_0" index="0" speed="8.94" length="14.40" shape="922.34,626.79,1.47 936.74,626.79,1.50" />
    </edge>
    <edge id=":B_14" function="internal">
        <lane id=":B_14_0" index="0" speed="8.00" length="4.07" shape="922.34,626.79,1.47 926.19,627.34,1.48 926.34,627.43,1.48" />
    </edge>
    <edge id=":B_15" function="internal">
        <lane id=":B_15_0" index="0" speed="3.65" length="1.44" shape="922.34,626.79,1.47 923.54,627.59,1.47" />
    </edge>
    <edge id=":B_22" function="internal">
        <lane id=":B_22_0" index="0" speed="8.00" length="10.13" shape="926.34,627.43,1.48 928.94,628.99,1.48 930.59,631.74,1.49 931.14,635.59,1.50" />
    </edge>
    <edge id=":B_23" function="internal">
        <lane id=":B_23_0" index="0" speed="3.65" length="3.23" shape="923.54,627.59,1.47 923.94,628.39,1.47 923.54,629.19,1.47 922.34,629.99,1.47" />
    </edge>
    <edge id=":BA_0" function="internal">
        <lane id=":BA_0_0" index="0" speed="3.65" length="4.67" shape="931.14,936.41,1.50 930.34,937.61,1.50 929.54,938.01,1.50 928.74,937.61,1.50 927.94,936.41,1.50" />
    </edge>
    <edge id=":BB_0" function="internal">
        <lane id=":BB_0_0" index="0" speed="3.65" length="4.67" shape="1237.56,626.79,1.50 1238.76,627.59,1.50 1239.16,628.39,1.50 1238.76,629.19,1.50 1237.56,629.99,1.50" />
    </edge>
    <edge id=":BC_0" function="internal">
        <lane id=":BC_0_0" index="0" speed="3.65" length="4.67" shape="927.94,320.36,1.50 928.74,319.16,1.50 929.54,318.76,1.50 930.34,319.16,1.50 931.14,320.36,1.50" />
    </edge>
    <edge id=":C_0" function="internal">
        <lane id=":C_0_0" index="0" speed="6.51" length="9.03" shape="616.71,324.59,-5.56 616.36,322.14,-5.61 615.31,320.39,-5.65 613.56,319.34,-5.69 611.11,318.99,-5.75" />
    </edge>
    <edge id=":C_1" function="internal">
        <lane id=":C_1_0" index="0" speed="11.18" length="20.80" shape="616.71,324.59,-5.56 616.71,303.79,-5.75" />
        <lane id=":C_1_1" index="1" speed="11.18" length="20.80" shape="619.91,324.59,-5.56 619.91,303.79,-5.75" />
    </edge>
    <edge id=":C_3" function="internal">
        <lane id=":C_3_0" index="0" speed="9.26" length="5.01" shape="619.91,324.59,-5.56 620.62,319.63,-5.60" />
    </edge>
    <edge id=":C_4" function="internal">
        <lane id=":C_4_0" index="0" speed="3.65" length="1.44" shape="619.91,324.59,-5.56 620.71,323.39,-5.56" />
    </edge>
    <edge id=":C_20" function="internal">
        <lane id=":C_20_0" index="0" speed="9.26" length="14.34" shape="620.62,319.63,-5.60 620.66,319.34,-5.61 622.91,315.59,-5.65 626.66,313.34,-5.69 631.91,312.59,-5.75" />
    </edge>
    <edge id=":C_21" function="internal">
        <lane id=":C_21_0" index="0" speed="3.65" length="3.23" shape="620.71,323.39,-5.56 621.51,322.99,-5.56 622.31,323.39,-5.56 623.11,324.59,-5.56" />
    </edge>
    <edge id=":C_5" function="internal">
        <lane id=":C_5_0" index="0" speed="6.51" length="9.03" shape="631.91,318.99,-5.75 629.46,319.34,-5.69 627.71,320.39,-5.65 626.66,322.14,-5.61 626.31,324.59,-5.56" />
    </edge>
    <edge id=":C_6" function="internal">
        <lane id=":C_6_0" index="0" speed="11.18" length="20.80" shape="631.91,318.99,-5.75 611.11,318.99,-5.75" />
        <lane id=":C_6_1" index="1" speed="11.18" length="20.80" shape="631.91,315.79,-5.75 611.11,315.79,-5.75" />
    </edge>
    <edge id=":C_8" function="internal">
        <lane id=":C_8_0" index="0" speed="9.26" length="5.01" shape="631.91,315.79,-5.75 626.95,315.08,-5.75" />
    </edge>
    <edge id=":C_9" function="internal">
        <lane id=":C_9_0" index="0" speed="3.65" length="1.44" shape="631.91,315.79,-5.75 630.71,314.99,-5.75" />
    </edge>
    <edge id=":C_22" function="internal">
        <lane id=":C_22_0" index="0" speed="9.26" length="14.34" shape="626.95,315.08,-5.75 626.66,315.04,-5.75 622.91,312.79,-5.75 620.66,309.04,-5.75 619.91,303.79,-5.75" />
    </edge>
    <edge id=":C_23" function="internal">
        <lane id=":C_23_0" index="0" speed="3.65" length="3.23" shape="630.71,314.99,-5.75 630.31,314.19,-5.75 630.71,313.39,-5.75 631.91,312.59,-5.75" />
    </edge>
    <edge id=":C_10" function="internal">
        <lane id=":C_10_0" index="0" speed="6.51" length="9.03" shape="626.31,303.79,-5.75 626.66,306.24,-5.75 627.71,307.99,-5.75 629.46,309.04,-5.75 631.91,309.39,-5.75" />
    </edge>
    <edge id=":C_11" function="internal">
        <lane id=":C_11_0" index="0" speed="11.18" length="20.80" shape="626.31,303.79,-5.75 626.31,324.59,-5.56" />
        <lane id=":C_11_1" index="1" speed="11.18" length="20.80" shape="623.11,303.79,-5.75 623.11,324.59,-5.56" />
    </edge>
    <edge id=":C_13" function="internal">
        <lane id=":C_13_0" index="0" speed="9.26" length="5.01" shape="623.11,303.79,-5.75 622.40,308.76,-5.75" />
    </edge>
    <edge id=":C_14" function="internal">
        <lane id=":C_14_0" index="0" speed="3.65" length="1.44" shape="623.11,303.79,-5.75 622.31,304.99,-5.75" />
    </edge>
    <edge id=":C_24" function="internal">
        <lane id=":C_24_0" index="0" speed="9.26" length="14.34" shape="622.40,308.76,-5.75 622.36,309.04,-5.75 620.11,312.79,-5.75 616.36,315.04,-5.75 611.11,315.79,-5.75" />
    </edge>
    <edge id=":C_25" function="internal">
        <lane id=":C_25_0" index="0" speed="3.65" length="3.23" shape="622.31,304.99,-5.75 621.51,305.39,-5.75 620.71,304.99,-5.75 619.91,303.79,-5.75" />
    </edge>
    <edge id=":C_15" function="internal">
        <lane id=":C_15_0" index="0" speed="6.51" length="9.03" shape="611.11,309.39,-5.75 613.56,309.04,-5.75 615.31,307.99,-5.75 616.36,306.24,-5.75 616.71,303.79,-5.75" />
    </edge>
    <edge id=":C_16" function="internal">
        <lane id=":C_16_0" index="0" speed="11.18" length="20.80" shape="611.11,309.39,-5.75 631.91,309.39,-5.75" />
        <lane id=":C_16_1" index="1" speed="11.18" length="20.80" shape="611.11,312.59,-5.75 631.91,312.59,-5.75" />
    </edge>
    <edge id=":C_18" function="internal">
        <lane id=":C_18_0" index="0" speed="9.26" length="5.01" shape="611.11,312.59,-5.75 616.07,313.30,-5.70" />
    </edge>
    <edge id=":C_19" function="internal">
        <lane id=":C_19_0" index="0" speed="3.65" length="1.44" shape="611.11,312.59,-5.75 612.31,313.39,-5.75" />
    </edge>
    <edge id=":C_26" function="internal">
        <lane id=":C_26_0" index="0" speed="9.26" length="14.34" shape="616.07,313.30,-5.70 616.36,313.34,-5.69 620.11,315.59,-5.65 622.36,319.34,-5.61 623.11,324.59,-5.56" />
    </edge>
    <edge id=":C_27" function="internal">
        <lane id=":C_27_0" index="0" speed="3.65" length="3.23" shape="612.31,313.39,-5.75 612.71,314.19,-5.75 612.31,314.99,-5.75 611.11,315.79,-5.75" />
    </edge>
    <edge id=":CA_0" function="internal">
        <lane id=":CA_0_0" index="0" speed="3.65" length="4.67" shape="935.71,312.59,-5.75 936.91,313.39,-5.75 937.31,314.19,-5.75 936.91,314.99,-5.75 935.71,315.79,-5.75" />
    </edge>
    <edge id=":CB_0" function="internal">
        <lane id=":CB_0_0" index="0" speed="3.65" length="4.67" shape="619.91,0.00,-5.75 620.71,-1.20,-5.75 621.51,-1.60,-5.75 622.31,-1.20,-5.75 623.11,0.00,-5.75" />
    </edge>
    <edge id=":CC_0" function="internal">
        <lane id=":CC_0_0" index="0" speed="3.65" length="4.67" shape="307.32,315.79,-5.75 306.12,314.99,-5.75 305.72,314.19,-5.75 306.12,313.39,-5.75 307.32,312.59,-5.75" />
    </edge>
    <edge id=":C_intern_0" function="internal">
        <lane id=":C_intern_0_0" index="0" speed="11.18" length="8.54" shape="626.31,574.39,-0.99 626.81,576.85,-0.95 627.91,578.39,-0.91 629.01,579.93,-0.88 629.51,582.39,-0.84" />
        <lane id=":C_intern_0_1" index="1" speed="11.18" length="8.54" shape="623.11,574.39,-0.99 623.61,576.85,-0.95 624.71,578.39,-0.91 625.81,579.93,-0.88 626.31,582.39,-0.84" />
        <lane id=":C_intern_0_2" index="2" speed="11.18" length="8.54" shape="623.11,574.39,-0.99 623.11,582.39,-0.84" />
    </edge>
    <edge id=":D_0" function="internal">
        <lane id=":D_0_0" index="0" speed="6.51" length="9.03" shape="305.96,635.59,2.56 305.61,633.14,2.56 304.56,631.39,2.56 302.81,630.34,2.56 300.36,629.99,2.56" />
    </edge>
    <edge id=":D_1" function="internal">
        <lane id=":D_1_0" index="0" speed="8.94" length="17.95" shape="305.96,635.59,2.56 306.46,629.77,2.56 307.56,625.31,2.56 308.66,621.59,2.56 309.16,617.99,2.56" />
    </edge>
    <edge id=":D_2" function="internal">
        <lane id=":D_2_0" index="0" speed="8.67" length="4.68" shape="309.16,635.59,2.56 309.91,631.74,2.54 310.39,631.15,2.53" />
    </edge>
    <edge id=":D_3" function="internal">
        <lane id=":D_3_0" index="0" speed="3.65" length="1.44" shape="309.16,635.59,2.56 309.96,634.39,2.56" />
    </edge>
    <edge id=":D_17" function="internal">
        <lane id=":D_17_0" index="0" speed="8.67" length="12.17" shape="310.39,631.15,2.53 312.16,628.99,2.52 315.91,627.34,2.50 321.16,626.79,2.47" />
    </edge>
    <edge id=":D_18" function="internal">
        <lane id=":D_18_0" index="0" speed="3.65" length="3.23" shape="309.96,634.39,2.56 310.76,633.99,2.56 311.56,634.39,2.56 312.36,635.59,2.56" />
    </edge>
    <edge id=":D_4" function="internal">
        <lane id=":D_4_0" index="0" speed="7.33" length="11.73" shape="321.16,629.99,2.47 317.31,630.34,2.50 314.56,631.39,2.52 312.91,633.14,2.54 312.36,635.59,2.56" />
    </edge>
    <edge id=":D_5" function="internal">
        <lane id=":D_5_0" index="0" speed="8.94" length="20.80" shape="321.16,629.99,2.47 300.36,629.99,2.56" />
    </edge>
    <edge id=":D_6" function="internal">
        <lane id=":D_6_0" index="0" speed="8.94" length="5.01" shape="321.16,629.99,2.47 316.19,629.28,2.49" />
    </edge>
    <edge id=":D_7" function="internal">
        <lane id=":D_7_0" index="0" speed="3.65" length="1.44" shape="321.16,629.99,2.47 319.96,629.19,2.47" />
    </edge>
    <edge id=":D_19" function="internal">
        <lane id=":D_19_0" index="0" speed="8.94" length="14.34" shape="316.19,629.28,2.49 315.91,629.24,2.50 312.16,626.99,2.51 309.91,623.24,2.53 309.16,617.99,2.56" />
    </edge>
    <edge id=":D_20" function="internal">
        <lane id=":D_20_0" index="0" speed="3.65" length="3.23" shape="319.96,629.19,2.47 319.56,628.39,2.47 319.96,627.59,2.47 321.16,626.79,2.47" />
    </edge>
    <edge id=":D_8" function="internal">
        <lane id=":D_8_0" index="0" speed="6.51" length="9.03" shape="315.56,617.99,2.56 315.91,620.44,2.53 316.96,622.19,2.51 318.71,623.24,2.50 321.16,623.59,2.47" />
    </edge>
    <edge id=":D_9" function="internal">
        <lane id=":D_9_0" index="0" speed="8.94" length="17.95" shape="315.56,617.99,2.56 315.06,623.81,2.56 313.96,628.27,2.56 312.86,631.99,2.56 312.36,635.59,2.56" />
    </edge>
    <edge id=":D_10" function="internal">
        <lane id=":D_10_0" index="0" speed="8.94" length="8.24" shape="312.36,617.99,2.56 311.61,623.24,2.56 310.10,625.75,2.56" />
    </edge>
    <edge id=":D_11" function="internal">
        <lane id=":D_11_0" index="0" speed="3.65" length="1.44" shape="312.36,617.99,2.56 311.56,619.19,2.56" />
    </edge>
    <edge id=":D_21" function="internal">
        <lane id=":D_21_0" index="0" speed="8.94" length="11.12" shape="310.10,625.75,2.56 309.36,626.99,2.56 305.61,629.24,2.56 300.36,629.99,2.56" />
    </edge>
    <edge id=":D_22" function="internal">
        <lane id=":D_22_0" index="0" speed="3.65" length="3.23" shape="311.56,619.19,2.56 310.76,619.59,2.56 309.96,619.19,2.56 309.16,617.99,2.56" />
    </edge>
    <edge id=":D_12" function="internal">
        <lane id=":D_12_0" index="0" speed="7.33" length="11.73" shape="300.36,623.59,2.56 304.21,623.24,2.56 306.96,622.19,2.56 308.61,620.44,2.56 309.16,617.99,2.56" />
    </edge>
    <edge id=":D_13" function="internal">
        <lane id=":D_13_0" index="0" speed="8.94" length="20.80" shape="300.36,623.59,2.56 321.16,623.59,2.47" />
        <lane id=":D_13_1" index="1" speed="8.94" length="20.80" shape="300.36,626.79,2.56 321.16,626.79,2.47" />
    </edge>
    <edge id=":D_15" function="internal">
        <lane id=":D_15_0" index="0" speed="8.67" length="5.56" shape="300.36,626.79,2.56 305.61,627.34,2.56 305.86,627.45,2.56" />
    </edge>
    <edge id=":D_16" function="internal">
        <lane id=":D_16_0" index="0" speed="3.65" length="1.44" shape="300.36,626.79,2.56 301.56,627.59,2.56" />
    </edge>
    <edge id=":D_23" function="internal">
        <lane id=":D_23_0" index="0" speed="8.67" length="11.29" shape="305.86,627.45,2.56 309.36,628.99,2.56 311.61,631.74,2.56 312.36,635.59,2.56" />
    </edge>
    <edge id=":D_24" function="internal">
        <lane id=":D_24_0" index="0" speed="3.65" length="3.23" shape="301.56,627.59,2.56 301.96,628.39,2.56 301.56,629.19,2.56 300.36,629.99,2.56" />
    </edge>
    <edge id=":DA_0" function="internal">
        <lane id=":DA_0_0" index="0" speed="3.65" length="4.67" shape="309.16,317.63,2.56 309.96,316.43,2.56 310.76,316.03,2.56 311.56,316.43,2.56 312.36,317.63,2.56" />
    </edge>
    <edge id=":DB_0" function="internal">
        <lane id=":DB_0_0" index="0" speed="3.65" length="4.67" shape="-0.00,629.99,2.56 -1.20,629.19,2.56 -1.60,628.39,2.56 -1.20,627.59,2.56 0.00,626.79,2.56" />
    </edge>
    <edge id=":DC_0" function="internal">
        <lane id=":DC_0_0" index="0" speed="3.65" length="4.67" shape="312.36,939.14,2.56 311.56,940.34,2.56 310.76,940.74,2.56 309.96,940.34,2.56 309.16,939.14,2.56" />
    </edge>
    <edge id=":TL_0" function="internal">
        <lane id=":TL_0_0" index="0" speed="6.51" length="9.03" shape="613.51,635.59,0.08 613.16,633.14,0.09 612.11,631.39,0.10 610.36,630.34,0.10 607.91,629.99,0.11" />
    </edge>
    <edge id=":TL_1" function="internal">
        <lane id=":TL_1_0" index="0" speed="11.18" length="17.98" shape="613.51,635.59,0.08 614.01,630.32,0.00 615.11,626.79,-0.05 616.21,623.25,-0.11 616.71,617.99,-0.19" />
        <lane id=":TL_1_1" index="1" speed="11.18" length="17.98" shape="616.71,635.59,0.08 617.21,630.32,0.00 618.31,626.79,-0.05 619.41,623.25,-0.11 619.91,617.99,-0.19" />
    </edge>
    <edge id=":TL_3" function="internal">
        <lane id=":TL_3_0" index="0" speed="9.32" length="3.97" shape="619.91,635.59,0.08 620.86,631.74,0.08" />
    </edge>
    <edge id=":TL_13" function="internal">
        <lane id=":TL_13_0" index="0" speed="9.32" length="15.66" shape="620.86,631.74,0.08 623.71,628.99,0.08 628.46,627.34,0.07 635.11,626.79,0.07" />
    </edge>
    <edge id=":TL_4" function="internal">
        <lane id=":TL_4_0" index="0" speed="7.33" length="11.73" shape="635.11,629.99,0.07 631.26,630.34,0.07 628.51,631.39,0.07 626.86,633.14,0.08 626.31,635.59,0.08" />
    </edge>
    <edge id=":TL_5" function="internal">
        <lane id=":TL_5_0" index="0" speed="8.94" length="27.20" shape="635.11,629.99,0.07 607.91,629.99,0.11" />
    </edge>
    <edge id=":TL_6" function="internal">
        <lane id=":TL_6_0" index="0" speed="7.33" length="11.73" shape="629.51,617.99,-0.19 629.86,621.84,-0.11 630.91,624.59,-0.04 632.66,626.24,0.01 635.11,626.79,0.07" />
    </edge>
    <edge id=":TL_7" function="internal">
        <lane id=":TL_7_0" index="0" speed="11.18" length="17.98" shape="629.51,617.99,-0.19 629.01,623.25,-0.11 627.91,626.79,-0.05 626.81,630.32,0.00 626.31,635.59,0.08" />
        <lane id=":TL_7_1" index="1" speed="11.18" length="17.98" shape="626.31,617.99,-0.19 625.81,623.25,-0.11 624.71,626.79,-0.05 623.61,630.32,0.00 623.11,635.59,0.08" />
    </edge>
    <edge id=":TL_9" function="internal">
        <lane id=":TL_9_0" index="0" speed="9.84" length="5.61" shape="623.11,617.99,-0.19 622.16,623.24,-0.12 622.00,623.45,-0.11" />
    </edge>
    <edge id=":TL_14" function="internal">
        <lane id=":TL_14_0" index="0" speed="9.84" length="16.39" shape="622.00,623.45,-0.11 619.31,626.99,-0.05 614.56,629.24,0.02 607.91,629.99,0.11" />
    </edge>
    <edge id=":TL_10" function="internal">
        <lane id=":TL_10_0" index="0" speed="7.33" length="11.73" shape="607.91,623.59,0.11 611.76,623.24,0.01 614.51,622.19,-0.06 616.16,620.44,-0.13 616.71,617.99,-0.19" />
    </edge>
    <edge id=":TL_11" function="internal">
        <lane id=":TL_11_0" index="0" speed="8.94" length="27.41" shape="607.91,623.59,0.11 615.68,624.09,0.10 623.39,625.19,0.09 630.16,626.29,0.07 635.11,626.79,0.07" />
    </edge>
    <edge id=":TL_12" function="internal">
        <lane id=":TL_12_0" index="0" speed="9.32" length="7.05" shape="607.91,626.79,0.11 614.56,627.34,0.10 614.92,627.46,0.10" />
    </edge>
    <edge id=":TL_15" function="internal">
        <lane id=":TL_15_0" index="0" speed="9.32" length="12.57" shape="614.92,627.46,0.10 619.31,628.99,0.09 622.16,631.74,0.09 623.11,635.59,0.08" />
    </edge>

    <edge id="A2AA" from="A" to="AA" priority="-1">
        <lane id="A2AA_0" index="0" speed="11.18" length="284.25" shape="611.11,927.84,3.32 326.86,927.84,3.32" />
        <lane id="A2AA_1" index="1" speed="11.18" length="284.25" shape="611.11,924.64,3.32 326.86,924.64,3.32" />
    </edge>
    <edge id="A2AB" from="A" to="AB" priority="-1">
        <lane id="A2AB_0" index="0" speed="11.18" length="284.25" shape="626.31,933.44,3.32 626.31,1217.69,3.32" />
        <lane id="A2AB_1" index="1" speed="11.18" length="284.25" shape="623.11,933.44,3.32 623.11,1217.69,3.32" />
    </edge>
    <edge id="A2AC" from="A" to="AC" priority="-1">
        <lane id="A2AC_0" index="0" speed="11.18" length="284.25" shape="631.91,918.24,3.32 916.17,918.24,3.32" />
        <lane id="A2AC_1" index="1" speed="11.18" length="284.25" shape="631.91,921.44,3.32 916.17,921.44,3.32" />
    </edge>
    <edge id="A2TL" from="A" to="A_intern" priority="-1">
        <lane id="A2TL_0" index="0" speed="11.18" length="230.27" shape="616.71,912.64,3.21 616.71,682.39,0.61" />
        <lane id="A2TL_1" index="1" speed="11.18" length="230.27" shape="619.91,912.64,3.21 619.91,682.39,0.61" />
    </edge>
    <edge id="A2TL_intern" from="A_intern" to="TL" priority="-1">
        <lane id="A2TL_intern_0" index="0" speed="11.18" length="38.80" shape="613.51,674.39,0.52 613.51,635.59,0.08" />
        <lane id="A2TL_intern_1" index="1" speed="11.18" length="38.80" shape="616.71,674.39,0.52 616.71,635.59,0.08" />
        <lane id="A2TL_intern_2" index="2" speed="11.18" length="38.80" shape="619.91,674.39,0.52 619.91,635.59,0.08" />
    </edge>
    <edge id="AA2A" from="AA" to="A" priority="-1">
        <lane id="AA2A_0" index="0" speed="11.18" length="284.25" shape="326.86,918.24,3.32 611.11,918.24,3.32" />
        <lane id="AA2A_1" index="1" speed="11.18" length="284.25" shape="326.86,921.44,3.32 611.11,921.44,3.32" />
    </edge>
    <edge id="AB2A" from="AB" to="A" priority="-1">
        <lane id="AB2A_0" index="0" speed="11.18" length="284.25" shape="616.71,1217.69,3.32 616.71,933.44,3.32" />
        <lane id="AB2A_1" index="1" speed="11.18" length="284.25" shape="619.91,1217.69,3.32 619.91,933.44,3.32" />
    </edge>
    <edge id="AC2A" from="AC" to="A" priority="-1">
        <lane id="AC2A_0" index="0" speed="11.18" length="284.25" shape="916.17,927.84,3.32 631.91,927.84,3.32" />
        <lane id="AC2A_1" index="1" speed="11.18" length="284.25" shape="916.17,924.64,3.32 631.91,924.64,3.32" />
    </edge>
    <edge id="B2BA" from="B" to="BA" priority="-1">
        <lane id="B2BA_0" index="0" speed="8.94" length="300.82" shape="931.14,635.59,1.50 931.14,936.41,1.50" />
    </edge>
    <edge id="B2BB" from="B" to="BB" priority="-1">
        <lane id="B2BB_0" index="0" speed="8.94" length="300.82" shape="936.74,626.79,1.50 1237.56,626.79,1.50" />
    </edge>
    <edge id="B2BC" from="B" to="BC" priority="-1">