<net xmlns:xsi="http://www.w3.org/2001/XMLSchema-instance" version="1.9" junctionCornerDetail="5" limitTurnSpeed="5.50" xsi:noNamespaceSchemaLocation="http://sumo.dlr.de/xsd/net_file.xsd">

    <location netOffset="863.65,1046.01" convBoundary="0.00,0.00,1570.41,1589.38" origBoundary="-863.65,-1046.01,706.77,543.38" projParameter="!" />

    <edge id=":A_0" function="internal">
        <lane id=":A_0_0" index="0" speed="8.10" length="14.57" shape="852.45,1334.50,-0.91 852.10,1329.25,-0.91 851.05,1325.50,-0.91 849.30,1323.25,-0.91 846.85,1322.50,-0.91" />
    </edge>
    <edge id=":A_1" function="internal">
        <lane id=":A_1_0" index="0" speed="17.88" length="33.60" shape="852.45,1334.50,-0.91 852.45,1300.90,-0.85" />
        <lane id=":A_1_1" index="1" speed="17.88" length="33.60" shape="855.65,1334.50,-0.91 855.65,1300.90,-0.85" />
        <lane id=":A_1_2" index="2" speed="17.88" length="33.60" shape="858.85,1334.50,-0.91 858.85,1300.90,-0.85" />
        <lane id=":A_1_3" index="3" speed="17.88" length="33.60" shape="862.05,1334.50,-0.91 862.05,1300.90,-0.85" />
    </edge>
    <edge id=":A_5" function="internal">
        <lane id=":A_5_0" index="0" speed="10.41" length="7.59" shape="862.05,1334.50,-0.91 862.75,1326.94,-0.91" />
    </edge>
    <edge id=":A_6" function="internal">
        <lane id=":A_6_0" index="0" speed="3.65" length="1.44" shape="862.05,1334.50,-0.91 862.85,1333.30,-0.91" />
    </edge>
    <edge id=":A_22" function="internal">
        <lane id=":A_22_0" index="0" speed="10.41" length="17.14" shape="862.75,1326.94,-0.91 862.80,1326.45,-0.91 865.05,1320.70,-0.91 868.80,1317.25,-0.91 874.05,1316.10,-0.91" />
    </edge>
    <edge id=":A_23" function="internal">
        <lane id=":A_23_0" index="0" speed="3.65" length="3.23" shape="862.85,1333.30,-0.91 863.65,1332.90,-0.91 864.45,1333.30,-0.91 865.25,1334.50,-0.91" />
    </edge>
    <edge id=":A_7" function="internal">
        <lane id=":A_7_0" index="0" speed="6.51" length="9.03" shape="874.05,1328.90,-0.91 871.60,1329.25,-0.91 869.85,1330.30,-0.91 868.80,1332.05,-0.91 868.45,1334.50,-0.91" />
    </edge>
    <edge id=":A_8" function="internal">
        <lane id=":A_8_0" index="0" speed="17.88" length="27.43" shape="874.05,1325.70,-0.91 865.43,1325.20,-0.91 859.06,1324.10,-0.91 853.39,1323.00,-0.91 846.85,1322.50,-0.91" />
        <lane id=":A_8_1" index="1" speed="17.88" length="27.43" shape="874.05,1322.50,-0.91 865.43,1322.00,-0.91 859.06,1320.90,-0.91 853.39,1319.80,-0.91 846.85,1319.30,-0.91" />
    </edge>
    <edge id=":A_10" function="internal">
        <lane id=":A_10_0" index="0" speed="10.41" length="5.03" shape="874.05,1319.30,-0.91 869.13,1318.22,-0.90" />
    </edge>
    <edge id=":A_11" function="internal">
        <lane id=":A_11_0" index="0" speed="3.65" length="1.44" shape="874.05,1319.30,-0.91 872.85,1318.50,-0.91" />
    </edge>
    <edge id=":A_24" function="internal">
        <lane id=":A_24_0" index="0" speed="10.41" length="19.69" shape="869.13,1318.22,-0.90 868.80,1318.15,-0.90 865.05,1314.70,-0.89 862.80,1308.95,-0.87 862.05,1300.90,-0.85" />
    </edge>
    <edge id=":A_25" function="internal">
        <lane id=":A_25_0" index="0" speed="3.65" length="3.23" shape="872.85,1318.50,-0.91 872.45,1317.70,-0.91 872.85,1316.90,-0.91 874.05,1316.10,-0.91" />
    </edge>
    <edge id=":A_12" function="internal">
        <lane id=":A_12_0" index="0" speed="8.10" length="14.57" shape="868.45,1300.90,-0.85 868.80,1306.15,-0.87 869.85,1309.90,-0.89 871.60,1312.15,-0.90 874.05,1312.90,-0.91" />
    </edge>
    <edge id=":A_13" function="internal">
        <lane id=":A_13_0" index="0" speed="17.88" length="33.60" shape="868.45,1300.90,-0.85 868.45,1334.50,-0.91" />
        <lane id=":A_13_1" index="1" speed="17.88" length="33.60" shape="865.25,1300.90,-0.85 865.25,1334.50,-0.91" />
    </edge>
    <edge id=":A_15" function="internal">
        <lane id=":A_15_0" index="0" speed="11.36" length="5.01" shape="865.25,1300.90,-0.85 864.54,1305.86,-0.86" />
    </edge>
    <edge id=":A_16" function="internal">
        <lane id=":A_16_0" index="0" speed="3.65" length="1.44" shape="865.25,1300.90,-0.85 864.45,1302.10,-0.85" />
    </edge>
    <edge id=":A_26" function="internal">
        <lane id=":A_26_0" index="0" speed="11.36" length="24.66" shape="864.54,1305.86,-0.86 864.10,1308.95,-0.87 860.65,1314.70,-0.88 854.90,1318.15,-0.90 846.85,1319.30,-0.91" />
    </edge>
    <edge id=":A_27" function="internal">
        <lane id=":A_27_0" index="0" speed="3.65" length="3.23" shape="864.45,1302.10,-0.85 863.65,1302.50,-0.85 862.85,1302.10,-0.85 862.05,1300.90,-0.85" />
    </edge>
    <edge id=":A_17" function="internal">
        <lane id=":A_17_0" index="0" speed="6.51" length="9.03" shape="846.85,1306.50,-0.91 849.30,1306.15,-0.90 851.05,1305.10,-0.88 852.10,1303.35,-0.87 852.45,1300.90,-0.85" />
    </edge>
    <edge id=":A_18" function="internal">
        <lane id=":A_18_0" index="0" speed="17.88" length="27.43" shape="846.85,1309.70,-0.91 855.47,1310.20,-0.91 861.83,1311.30,-0.91 867.50,1312.40,-0.91 874.05,1312.90,-0.91" />
        <lane id=":A_18_1" index="1" speed="17.88" length="27.43" shape="846.85,1312.90,-0.91 855.47,1313.40,-0.91 861.83,1314.50,-0.91 867.50,1315.60,-0.91 874.05,1316.10,-0.91" />
    </edge>
    <edge id=":A_20" function="internal">
        <lane id=":A_20_0" index="0" speed="11.36" length="8.78" shape="846.85,1316.10,-0.91 854.90,1317.25,-0.91 855.45,1317.58,-0.91" />
    </edge>
    <edge id=":A_21" function="internal">
        <lane id=":A_21_0" index="0" speed="3.65" length="1.44" shape="846.85,1316.10,-0.91 848.05,1316.90,-0.91" />
    </edge>
    <edge id=":A_28" function="internal">
        <lane id=":A_28_0" index="0" speed="11.36" length="20.90" shape="855.45,1317.58,-0.91 860.65,1320.70,-0.91 864.10,1326.45,-0.91 865.25,1334.50,-0.91" />
    </edge>
    <edge id=":A_29" function="internal">
        <lane id=":A_29_0" index="0" speed="3.65" length="3.23" shape="848.05,1316.90,-0.91 848.45,1317.70,-0.91 848.05,1318.50,-0.91 846.85,1319.30,-0.91" />
    </edge>
    <edge id=":AA_0" function="internal">
        <lane id=":AA_0_0" index="0" speed="3.65" length="4.67" shape="591.96,1319.30,-0.91 590.76,1318.50,-0.91 590.36,1317.70,-0.91 590.76,1316.90,-0.91 591.96,1316.10,-0.91" />
    </edge>
    <edge id=":AB_0" function="internal">
        <lane id=":AB_0_0" index="0" speed="3.65" length="4.67" shape="865.25,1589.38,-0.91 864.45,1590.58,-0.91 863.65,1590.98,-0.91 862.85,1590.58,-0.91 862.05,1589.38,-0.91" />
    </edge>
    <edge id=":AC_0" function="internal">
        <lane id=":AC_0_0" index="0" speed="3.65" length="4.67" shape="1135.34,1316.10,-0.91 1136.54,1316.90,-0.91 1136.94,1317.70,-0.91 1136.54,1318.50,-0.91 1135.34,1319.30,-0.91" />
    </edge>
    <edge id=":B_0" function="internal">
        <lane id=":B_0_0" index="0" speed="6.51" length="9.03" shape="1205.83,1062.81,-0.22 1205.48,1060.36,-0.21 1204.43,1058.61,-0.21 1202.68,1057.56,-0.21 1200.23,1057.21,-0.21" />
    </edge>
    <edge id=":B_1" function="internal">
        <lane id=":B_1_0" index="0" speed="20.12" length="27.43" shape="1209.03,1062.81,-0.22 1209.53,1054.19,-0.22 1210.63,1047.82,-0.22 1211.73,1042.15,-0.22 1212.23,1035.61,-0.22" />
        <lane id=":B_1_1" index="1" speed="20.12" length="27.43" shape="1212.23,1062.81,-0.22 1212.73,1054.19,-0.22 1213.83,1047.82,-0.22 1214.93,1042.15,-0.22 1215.43,1035.61,-0.22" />
    </edge>
    <edge id=":B_3" function="internal">
        <lane id=":B_3_0" index="0" speed="11.36" length="8.78" shape="1215.43,1062.81,-0.22 1216.58,1054.76,-0.22 1216.91,1054.20,-0.22" />
    </edge>
    <edge id=":B_4" function="internal">
        <lane id=":B_4_0" index="0" speed="3.65" length="1.44" shape="1215.43,1062.81,-0.22 1216.23,1061.61,-0.22" />
    </edge>
    <edge id=":B_22" function="internal">
        <lane id=":B_22_0" index="0" speed="11.36" length="20.90" shape="1216.91,1054.20,-0.22 1220.03,1049.01,-0.22 1225.78,1045.56,-0.22 1233.83,1044.41,-0.22" />
    </edge>
    <edge id=":B_23" function="internal">
        <lane id=":B_23_0" index="0" speed="3.65" length="3.23" shape="1216.23,1061.61,-0.22 1217.03,1061.21,-0.22 1217.83,1061.61,-0.22 1218.63,1062.81,-0.22" />
    </edge>
    <edge id=":B_5" function="internal">
        <lane id=":B_5_0" index="0" speed="8.10" length="14.57" shape="1233.83,1057.21,-0.22 1228.58,1057.56,-0.22 1224.83,1058.61,-0.22 1222.58,1060.36,-0.22 1221.83,1062.81,-0.22" />
    </edge>
    <edge id=":B_6" function="internal">
        <lane id=":B_6_0" index="0" speed="20.12" length="33.60" shape="1233.83,1057.21,-0.22 1200.23,1057.21,-0.21" />
        <lane id=":B_6_1" index="1" speed="20.12" length="33.60" shape="1233.83,1054.01,-0.22 1200.23,1054.01,-0.21" />
        <lane id=":B_6_2" index="2" speed="20.12" length="33.60" shape="1233.83,1050.81,-0.22 1200.23,1050.81,-0.21" />
        <lane id=":B_6_3" index="3" speed="20.12" length="33.60" shape="1233.83,1047.61,-0.22 1200.23,1047.61,-0.21" />
    </edge>
    <edge id=":B_10" function="internal">
        <lane id=":B_10_0" index="0" speed="10.41" length="7.59" shape="1233.83,1047.61,-0.22 1226.28,1046.90,-0.22" />
    </edge>
    <edge id=":B_11" function="internal">
        <lane id=":B_11_0" index="0" speed="3.65" length="1.44" shape="1233.83,1047.61,-0.22 1232.63,1046.81,-0.22" />
    </edge>
    <edge id=":B_24" function="internal">
        <lane id=":B_24_0" index="0" speed="10.41" length="17.14" shape="1226.28,1046.90,-0.22 1225.78,1046.86,-0.22 1220.03,1044.61,-0.22 1216.58,1040.86,-0.22 1215.43,1035.61,-0.22" />
    </edge>
    <edge id=":B_25" function="internal">
        <lane id=":B_25_0" index="0" speed="3.65" length="3.23" shape="1232.63,1046.81,-0.22 1232.23,1046.01,-0.22 1232.63,1045.21,-0.22 1233.83,1044.41,-0.22" />
    </edge>
    <edge id=":B_12" function="internal">
        <lane id=":B_12_0" index="0" speed="6.51" length="9.03" shape="1228.23,1035.61,-0.22 1228.58,1038.06,-0.22 1229.63,1039.81,-0.22 1231.38,1040.86,-0.22 1233.83,1041.21,-0.22" />
    </edge>
    <edge id=":B_13" function="internal">
        <lane id=":B_13_0" index="0" speed="20.12" length="27.43" shape="1225.03,1035.61,-0.22 1224.53,1044.23,-0.22 1223.43,1050.59,-0.22 1222.33,1056.26,-0.22 1221.83,1062.81,-0.22" />
        <lane id=":B_13_1" index="1" speed="20.12" length="27.43" shape="1221.83,1035.61,-0.22 1221.33,1044.23,-0.22 1220.23,1050.59,-0.22 1219.13,1056.26,-0.22 1218.63,1062.81,-0.22" />
    </edge>
    <edge id=":B_15" function="internal">
        <lane id=":B_15_0" index="0" speed="10.41" length="5.03" shape="1218.63,1035.61,-0.22 1217.55,1040.53,-0.21" />
    </edge>
    <edge id=":B_16" function="internal">
        <lane id=":B_16_0" index="0" speed="3.65" length="1.44" shape="1218.63,1035.61,-0.22 1217.83,1036.81,-0.22" />
    </edge>
    <edge id=":B_26" function="internal">
        <lane id=":B_26_0" index="0" speed="10.41" length="19.69" shape="1217.55,1040.53,-0.21 1217.48,1040.86,-0.21 1214.03,1044.61,-0.21 1208.28,1046.86,-0.21 1200.23,1047.61,-0.21" />
    </edge>
    <edge id=":B_27" function="internal">
        <lane id=":B_27_0" index="0" speed="3.65" length="3.23" shape="1217.83,1036.81,-0.22 1217.03,1037.21,-0.22 1216.23,1036.81,-0.22 1215.43,1035.61,-0.22" />
    </edge>
    <edge id=":B_17" function="internal">
        <lane id=":B_17_0" index="0" speed="8.10" length="14.57" shape="1200.23,1041.21,-0.21 1205.48,1040.86,-0.21 1209.23,1039.81,-0.21 1211.48,1038.06,-0.21 1212.23,1035.61,-0.22" />
    </edge>
    <edge id=":B_18" function="internal">
        <lane id=":B_18_0" index="0" speed="20.12" length="33.60" shape="1200.23,1041.21,-0.21 1233.83,1041.21,-0.22" />
        <lane id=":B_18_1" index="1" speed="20.12" length="33.60" shape="1200.23,1044.41,-0.21 1233.83,1044.41,-0.22" />
    </edge>
    <edge id=":B_20" function="internal">
        <lane id=":B_20_0" index="0" speed="11.36" length="5.01" shape="1200.23,1044.41,-0.21 1205.19,1045.12,-0.21" />
    </edge>
    <edge id=":B_21" function="internal">
        <lane id=":B_21_0" index="0" speed="3.65" length="1.44" shape="1200.23,1044.41,-0.21 1201.43,1045.21,-0.21" />
    </edge>
    <edge id=":B_28" function="internal">
        <lane id=":B_28_0" index="0" speed="11.36" length="24.66" shape="1205.19,1045.12,-0.21 1208.28,1045.56,-0.21 1214.03,1049.01,-0.21 1217.48,1054.76,-0.21 1218.63,1062.81,-0.22" />
    </edge>
    <edge id=":B_29" function="internal">
        <lane id=":B_29_0" index="0" speed="3.65" length="3.23" shape="1201.43,1045.21,-0.21 1201.83,1046.01,-0.21 1201.43,1046.81,-0.21 1200.23,1047.61,-0.21" />
    </edge>
    <edge id=":BA_0" function="internal">
        <lane id=":BA_0_0" index="0" speed="3.65" length="4.67" shape="1218.63,1399.39,-0.22 1217.83,1400.59,-0.22 1217.03,1400.99,-0.22 1216.23,1400.59,-0.22 1215.43,1399.39,-0.22" />
    </edge>
    <edge id=":BB_0" function="internal">
        <lane id=":BB_0_0" index="0" speed="3.65" length="4.67" shape="1570.41,1044.41,-0.22 1571.61,1045.21,-0.22 1572.01,1046.01,-0.22 1571.61,1046.81,-0.22 1570.41,1047.61,-0.22" />
    </edge>
    <edge id=":BC_0" function="internal">
        <lane id=":BC_0_0" index="0" speed="3.65" length="4.67" shape="1215.43,692.62,-0.22 1216.23,691.42,-0.22 1217.03,691.02,-0.22 1217.83,691.42,-0.22 1218.63,692.62,-0.22" />
    </edge>
    <edge id=":C_0" function="internal">
        <lane id=":C_0_0" index="0" speed="6.51" length="9.03" shape="858.85,533.40,-2.19 858.50,530.95,-2.20 857.45,529.20,-2.21 855.70,528.15,-2.22 853.25,527.80,-2.23" />
    </edge>
    <edge id=":C_1" function="internal">
        <lane id=":C_1_0" index="0" speed="17.88" length="20.80" shape="858.85,533.40,-2.19 858.85,512.60,-2.23" />
        <lane id=":C_1_1" index="1" speed="17.88" length="20.80" shape="862.05,533.40,-2.19 862.05,512.60,-2.23" />
    </edge>
    <edge id=":C_3" function="internal">
        <lane id=":C_3_0" index="0" speed="9.26" length="5.01" shape="862.05,533.40,-2.19 862.76,528.44,-2.20" />
    </edge>
    <edge id=":C_4" function="internal">
        <lane id=":C_4_0" index="0" speed="3.65" length="1.44" shape="862.05,533.40,-2.19 862.85,532.20,-2.19" />
    </edge>
    <edge id=":C_20" function="internal">
        <lane id=":C_20_0" index="0" speed="9.26" length="14.34" shape="862.76,528.44,-2.20 862.80,528.15,-2.20 865.05,524.40,-2.21 868.80,522.15,-2.22 874.05,521.40,-2.23" />
    </edge>
    <edge id=":C_21" function="internal">
        <lane id=":C_21_0" index="0" speed="3.65" length="3.23" shape="862.85,532.20,-2.19 863.65,531.80,-2.19 864.45,532.20,-2.19 865.25,533.40,-2.19" />
    </edge>
    <edge id=":C_5" function="internal">
        <lane id=":C_5_0" index="0" speed="6.51" length="9.03" shape="874.05,527.80,-2.23 871.60,528.15,-2.22 869.85,529.20,-2.21 868.80,530.95,-2.20 868.45,533.40,-2.19" />
    </edge>
    <edge id=":C_6" function="internal">
        <lane id=":C_6_0" index="0" speed="17.88" length="20.80" shape="874.05,527.80,-2.23 853.25,527.80,-2.23" />
        <lane id=":C_6_1" index="1" speed="17.88" length="20.80" shape="874.05,524.60,-2.23 853.25,524.60,-2.23" />
    </edge>
    <edge id=":C_8" function="internal">
        <lane id=":C_8_0" index="0" speed="9.26" length="5.01" shape="874.05,524.60,-2.23 869.08,523.89,-2.23" />
    </edge>
    <edge id=":C_9" function="internal">
        <lane id=":C_9_0" index="0" speed="3.65" length="1.44" shape="874.05,524.60,-2.23 872.85,523.80,-2.23" />
    </edge>
    <edge id=":C_22" function="internal">
        <lane id=":C_22_0" index="0" speed="9.26" length="14.34" shape="869.08,523.89,-2.23 868.80,523.85,-2.23 865.05,521.60,-2.23 862.80,517.85,-2.23 862.05,512.60,-2.23" />
    </edge>
    <edge id=":C_23" function="internal">
        <lane id=":C_23_0" index="0" speed="3.65" length="3.23" shape="872.85,523.80,-2.23 872.45,523.00,-2.23 872.85,522.20,-2.23 874.05,521.40,-2.23" />
    </edge>
    <edge id=":C_10" function="internal">
        <lane id=":C_10_0" index="0" speed="6.51" length="9.03" shape="868.45,512.60,-2.23 868.80,515.05,-2.23 869.85,516.80,-2.23 871.60,517.85,-2.23 874.05,518.20,-2.23" />
    </edge>
    <edge id=":C_11" function="internal">
        <lane id=":C_11_0" index="0" speed="17.88" length="20.80" shape="868.45,512.60,-2.23 868.45,533.40,-2.19" />
        <lane id=":C_11_1" index="1" speed="17.88" length="20.80" shape="865.25,512.60,-2.23 865.25,533.40,-2.19" />
    </edge>
    <edge id=":C_13" function="internal">
        <lane id=":C_13_0" index="0" speed="9.26" length="5.01" shape="865.25,512.60,-2.23 864.54,517.57,-2.23" />
    </edge>
    <edge id=":C_14" function="internal">
        <lane id=":C_14_0" index="0" speed="3.65" length="1.44" shape="865.25,512.60,-2.23 864.45,513.80,-2.23" />
    </edge>
    <edge id=":C_24" function="internal">
        <lane id=":C_24_0" index="0" speed="9.26" length="14.34" shape="864.54,517.57,-2.23 864.50,517.85,-2.23 862.25,521.60,-2.23 858.50,523.85,-2.23 853.25,524.60,-2.23" />
    </edge>
    <edge id=":C_25" function="internal">
        <lane id=":C_25_0" index="0" speed="3.65" length="3.23" shape="864.45,513.80,-2.23 863.65,514.20,-2.23 862.85,513.80,-2.23 862.05,512.60,-2.23" />
    </edge>
    <edge id=":C_15" function="internal">
        <lane id=":C_15_0" index="0" speed="6.51" length="9.03" shape="853.25,518.20,-2.23 855.70,517.85,-2.23 857.45,516.80,-2.23 858.50,515.05,-2.23 858.85,512.60,-2.23" />
    </edge>
    <edge id=":C_16" function="internal">
        <lane id=":C_16_0" index="0" speed="17.88" length="20.80" shape="853.25,518.20,-2.23 874.05,518.20,-2.23" />
        <lane id=":C_16_1" index="1" speed="17.88" length="20.80" shape="853.25,521.40,-2.23 874.05,521.40,-2.23" />
    </edge>
    <edge id=":C_18" function="internal">
        <lane id=":C_18_0" index="0" speed="9.26" length="5.01" shape="853.25,521.40,-2.23 858.21,522.11,-2.22" />
    </edge>
    <edge id=":C_19" function="internal">
        <lane id=":C_19_0" index="0" speed="3.65" length="1.44" shape="853.25,521.40,-2.23 854.45,522.20,-2.23" />
    </edge>
    <edge id=":C_26" function="internal">
        <lane id=":C_26_0" index="0" speed="9.26" length="14.34" shape="858.21,522.11,-2.22 858.50,522.15,-2.22 862.25,524.40,-2.21 864.50,528.15,-2.20 865.25,533.40,-2.19" />
    </edge>
    <edge id=":C_27" function="internal">
        <lane id=":C_27_0" index="0" speed="3.65" length="3.23" shape="854.45,522.20,-2.23 854.85,523.00,-2.23 854.45,523.80,-2.23 853.25,524.60,-2.23" />
    </edge>
    <edge id=":CA_0" function="internal">
        <lane id=":CA_0_0" index="0" speed="3.65" length="4.67" shape="1386.65,521.40,-2.23 1387.85,522.20,-2.23 1388.25,523.00,-2.23 1387.85,523.80,-2.23 1386.65,524.60,-2.23" />
    </edge>
    <edge id=":CB_0" function="internal">
        <lane id=":CB_0_0" index="0" speed="3.65" length="4.67" shape="862.05,-0.00,-2.23 862.85,-1.20,-2.23 863.65,-1.60,-2.23 864.45,-1.20,-2.23 865.25,0.00,-2.23" />
    </edge>
    <edge id=":CC_0" function="internal">
        <lane id=":CC_0_0" index="0" speed="3.65" length="4.67" shape="340.64,524.60,-2.23 339.44,523.80,-2.23 339.04,523.00,-2.23 339.44,522.20,-2.23 340.64,521.40,-2.23" />
    </edge>
    <edge id=":D_0" function="internal">
        <lane id=":D_0_0" index="0" speed="6.51" length="9.03" shape="420.62,1056.41,-0.53 420.27,1053.96,-0.53 419.22,1052.21,-0.53 417.47,1051.16,-0.53 415.02,1050.81,-0.53" />
    </edge>
    <edge id=":D_1" function="internal">
        <lane id=":D_1_0" index="0" speed="20.12" length="27.43" shape="423.82,1056.41,-0.53 424.32,1047.79,-0.53 425.42,1041.42,-0.53 426.52,1035.75,-0.53 427.02,1029.21,-0.53" />
        <lane id=":D_1_1" index="1" speed="20.12" length="27.43" shape="427.02,1056.41,-0.53 427.52,1047.79,-0.53 428.62,1041.42,-0.53 429.72,1035.75,-0.53 430.22,1029.21,-0.53" />
    </edge>
    <edge id=":D_3" function="internal">
        <lane id=":D_3_0" index="0" speed="10.41" length="5.03" shape="430.22,1056.41,-0.53 431.30,1051.49,-0.52" />
    </edge>
    <edge id=":D_4" function="internal">
        <lane id=":D_4_0" index="0" speed="3.65" length="1.44" shape="430.22,1056.41,-0.53 431.02,1055.21,-0.53" />
    </edge>
    <edge id=":D_22" function="internal">
        <lane id=":D_22_0" index="0" speed="10.41" length="19.69" shape="431.30,1051.49,-0.52 431.37,1051.16,-0.52 434.82,1047.41,-0.52 440.57,1045.16,-0.51 448.62,1044.41,-0.51" />
    </edge>
    <edge id=":D_23" function="internal">
        <lane id=":D_23_0" index="0" speed="3.65" length="3.23" shape="431.02,1055.21,-0.53 431.82,1054.81,-0.53 432.62,1055.21,-0.53 433.42,1056.41,-0.53" />
    </edge>
    <edge id=":D_5" function="internal">
        <lane id=":D_5_0" index="0" speed="8.10" length="14.57" shape="448.62,1050.81,-0.51 443.37,1051.16,-0.51 439.62,1052.21,-0.52 437.37,1053.96,-0.52 436.62,1056.41,-0.53" />
    </edge>
    <edge id=":D_6" function="internal">
        <lane id=":D_6_0" index="0" speed="20.12" length="33.60" shape="448.62,1050.81,-0.51 415.02,1050.81,-0.53" />
        <lane id=":D_6_1" index="1" speed="20.12" length="33.60" shape="448.62,1047.61,-0.51 415.02,1047.61,-0.53" />
    </edge>
    <edge id=":D_8" function="internal">
        <lane id=":D_8_0" index="0" speed="11.36" length="5.01" shape="448.62,1047.61,-0.51 443.66,1046.90,-0.51" />
    </edge>
    <edge id=":D_9" function="internal">
        <lane id=":D_9_0" index="0" speed="3.65" length="1.44" shape="448.62,1047.61,-0.51 447.42,1046.81,-0.51" />
    </edge>
    <edge id=":D_24" function="internal">
        <lane id=":D_24_0" index="0" speed="11.36" length="24.66" shape="443.66,1046.90,-0.51 440.57,1046.46,-0.51 434.82,1043.01,-0.52 431.37,1037.26,-0.52 430.22,1029.21,-0.53" />
    </edge>
    <edge id=":D_25" function="internal">
        <lane id=":D_25_0" index="0" speed="3.65" length="3.23" shape="447.42,1046.81,-0.51 447.02,1046.01,-0.51 447.42,1045.21,-0.51 448.62,1044.41,-0.51" />
    </edge>
    <edge id=":D_10" function="internal">
        <lane id=":D_10_0" index="0" speed="6.51" length="9.03" shape="443.02,1029.21,-0.53 443.37,1031.66,-0.52 444.42,1033.41,-0.52 446.17,1034.46,-0.51 448.62,1034.81,-0.51" />
    </edge>
    <edge id=":D_11" function="internal">
        <lane id=":D_11_0" index="0" speed="20.12" length="27.43" shape="439.82,1029.21,-0.53 439.32,1037.83,-0.53 438.22,1044.19,-0.53 437.12,1049.86,-0.53 436.62,1056.41,-0.53" />
        <lane id=":D_11_1" index="1" speed="20.12" length="27.43" shape="436.62,1029.21,-0.53 436.12,1037.83,-0.53 435.02,1044.19,-0.53 433.92,1049.86,-0.53 433.42,1056.41,-0.53" />
    </edge>
    <edge id=":D_13" function="internal">
        <lane id=":D_13_0" index="0" speed="11.36" length="8.78" shape="433.42,1029.21,-0.53 432.27,1037.26,-0.53 431.94,1037.81,-0.53" />
    </edge>
    <edge id=":D_14" function="internal">
        <lane id=":D_14_0" index="0" speed="3.65" length="1.44" shape="433.42,1029.21,-0.53 432.62,1030.41,-0.53" />
    </edge>
    <edge id=":D_26" function="internal">
        <lane id=":D_26_0" index="0" speed="11.36" length="20.90" shape="431.94,1037.81,-0.53 428.82,1043.01,-0.53 423.07,1046.46,-0.53 415.02,1047.61,-0.53" />
    </edge>
    <edge id=":D_27" function="internal">
        <lane id=":D_27_0" index="0" speed="3.65" length="3.23" shape="432.62,1030.41,-0.53 431.82,1030.81,-0.53 431.02,1030.41,-0.53 430.22,1029.21,-0.53" />
    </edge>
    <edge id=":D_15" function="internal">
        <lane id=":D_15_0" index="0" speed="8.10" length="14.57" shape="415.02,1034.81,-0.53 420.27,1034.46,-0.53 424.02,1033.41,-0.53 426.27,1031.66,-0.53 427.02,1029.21,-0.53" />
    </edge>
    <edge id=":D_16" function="internal">
        <lane id=":D_16_0" index="0" speed="20.12" length="33.60" shape="415.02,1034.81,-0.53 448.62,1034.81,-0.51" />
        <lane id=":D_16_1" index="1" speed="20.12" length="33.60" shape="415.02,1038.01,-0.53 448.62,1038.01,-0.51" />
        <lane id=":D_16_2" index="2" speed="20.12" length="33.60" shape="415.02,1041.21,-0.53 448.62,1041.21,-0.51" />
        <lane id=":D_16_3" index="3" speed="20.12" length="33.60" shape="415.02,1044.41,-0.53 448.62,1044.41,-0.51" />
    </edge>
    <edge id=":D_20" function="internal">
        <lane id=":D_20_0" index="0" speed="10.41" length="7.59" shape="415.02,1044.41,-0.53 422.58,1045.11,-0.53" />
    </edge>
    <edge id=":D_21" function="internal">
        <lane id=":D_21_0" index="0" speed="3.65" length="1.44" shape="415.02,1044.41,-0.53 416.22,1045.21,-0.53" />
    </edge>
    <edge id=":D_28" function="internal">
        <lane id=":D_28_0" index="0" speed="10.41" length="17.14" shape="422.58,1045.11,-0.53 423.07,1045.16,-0.53 428.82,1047.41,-0.53 432.27,1051.16,-0.53 433.42,1056.41,-0.53" />
    </edge>
    <edge id=":D_29" function="internal">
        <lane id=":D_29_0" index="0" speed="3.65" length="3.23" shape="416.22,1045.21,-0.53 416.62,1046.01,-0.53 416.22,1046.81,-0.53 415.02,1047.61,-0.53" />
    </edge>
    <edge id=":DA_0" function="internal">
        <lane id=":DA_0_0" index="0" speed="3.65" length="4.67" shape="430.22,614.18,-0.53 431.02,612.98,-0.53 431.82,612.58,-0.53 432.62,612.98,-0.53 433.42,614.18,-0.53" />
    </edge>
    <edge id=":DB_0" function="internal">
        <lane id=":DB_0_0" index="0" speed="3.65" length="4.67" shape="0.00,1047.61,-0.53 -1.20,1046.81,-0.53 -1.60,1046.01,-0.53 -1.20,1045.21,-0.53 0.00,1044.41,-0.53" />
    </edge>
    <edge id=":DC_0" function="internal">
        <lane id=":DC_0_0" index="0" speed="3.65" length="4.67" shape="433.42,1477.83,-0.53 432.62,1479.03,-0.53 431.82,1479.43,-0.53 431.02,1479.03,-0.53 430.22,1477.83,-0.53" />
    </edge>
    <edge id=":TL_0" function="internal">
        <lane id=":TL_0_0" index="0" speed="8.10" length="14.57" shape="852.45,1062.81,-0.06 852.10,1057.56,-0.04 851.05,1053.81,-0.03 849.30,1051.56,-0.03 846.85,1050.81,-0.02" />
    </edge>
    <edge id=":TL_1" function="internal">
        <lane id=":TL_1_0" index="0" speed="17.88" length="33.78" shape="855.65,1062.81,-0.06 856.15,1051.84,-0.06 857.25,1043.43,-0.07 858.35,1036.30,-0.07 858.85,1029.21,-0.07" />
        <lane id=":TL_1_1" index="1" speed="17.88" length="33.78" shape="858.85,1062.81,-0.06 859.35,1051.84,-0.06 860.45,1043.43,-0.07 861.55,1036.30,-0.07 862.05,1029.21,-0.07" />
    </edge>
    <edge id=":TL_3" function="internal">
        <lane id=":TL_3_0" index="0" speed="10.41" length="7.59" shape="862.05,1062.81,-0.06 862.75,1055.25,-0.04" />
    </edge>
    <edge id=":TL_16" function="internal">
        <lane id=":TL_16_0" index="0" speed="10.41" length="17.14" shape="862.75,1055.25,-0.04 862.80,1054.76,-0.04 865.05,1049.01,-0.03 868.80,1045.56,-0.02 874.05,1044.41,-0.01" />
    </edge>
    <edge id=":TL_4" function="internal">
        <lane id=":TL_4_0" index="0" speed="6.51" length="9.03" shape="874.05,1057.21,-0.01 871.60,1057.56,-0.02 869.85,1058.61,-0.03 868.80,1060.36,-0.04 868.45,1062.81,-0.06" />
    </edge>
    <edge id=":TL_5" function="internal">
        <lane id=":TL_5_0" index="0" speed="20.12" length="27.43" shape="874.05,1054.01,-0.01 865.43,1053.51,-0.01 859.06,1052.41,-0.01 853.39,1051.31,-0.02 846.85,1050.81,-0.02" />
        <lane id=":TL_5_1" index="1" speed="20.12" length="27.43" shape="874.05,1050.81,-0.01 865.43,1050.31,-0.01 859.06,1049.21,-0.01 853.39,1048.11,-0.02 846.85,1047.61,-0.02" />
    </edge>
    <edge id=":TL_7" function="internal">
        <lane id=":TL_7_0" index="0" speed="10.41" length="5.03" shape="874.05,1047.61,-0.01 869.13,1046.53,-0.02" />
    </edge>
    <edge id=":TL_17" function="internal">
        <lane id=":TL_17_0" index="0" speed="10.41" length="19.69" shape="869.13,1046.53,-0.02 868.80,1046.46,-0.02 865.05,1043.01,-0.03 862.80,1037.26,-0.05 862.05,1029.21,-0.07" />
    </edge>
    <edge id=":TL_8" function="internal">
        <lane id=":TL_8_0" index="0" speed="8.10" length="14.57" shape="868.45,1029.21,-0.07 868.80,1034.46,-0.05 869.85,1038.21,-0.03 871.60,1040.46,-0.02 874.05,1041.21,-0.01" />
    </edge>
    <edge id=":TL_9" function="internal">
        <lane id=":TL_9_0" index="0" speed="17.88" length="33.60" shape="868.45,1029.21,-0.07 868.45,1062.81,-0.06" />
        <lane id=":TL_9_1" index="1" speed="17.88" length="33.60" shape="865.25,1029.21,-0.07 865.25,1062.81,-0.06" />
    </edge>
    <edge id=":TL_11" function="internal">
        <lane id=":TL_11_0" index="0" speed="11.36" length="8.38" shape="865.25,1029.21,-0.07 864.10,1037.26,-0.06 863.97,1037.47,-0.06" />
    </edge>
    <edge id=":TL_18" function="internal">
        <lane id=":TL_18_0" index="0" speed="11.36" length="21.29" shape="863.97,1037.47,-0.06 860.65,1043.01,-0.05 854.90,1046.46,-0.03 846.85,1047.61,-0.02" />
    </edge>
    <edge id=":TL_12" function="internal">
        <lane id=":TL_12_0" index="0" speed="8.10" length="14.57" shape="846.85,1034.81,-0.02 852.10,1034.46,-0.04 855.85,1033.41,-0.05 858.10,1031.66,-0.06 858.85,1029.21,-0.07" />
    </edge>
    <edge id=":TL_13" function="internal">
        <lane id=":TL_13_0" index="0" speed="20.12" length="27.43" shape="846.85,1038.01,-0.02 855.47,1038.51,-0.02 861.83,1039.61,-0.01 867.50,1040.71,-0.01 874.05,1041.21,-0.01" />
        <lane id=":TL_13_1" index="1" speed="20.12" length="27.43" shape="846.85,1041.21,-0.02 855.47,1041.71,-0.02 861.83,1042.81,-0.01 867.50,1043.91,-0.01 874.05,1044.41,-0.01" />
    </edge>
    <edge id=":TL_15" function="internal">
        <lane id=":TL_15_0" index="0" speed="11.36" length="8.78" shape="846.85,1044.41,-0.02 854.90,1045.56,-0.03 855.45,1045.89,-0.03" />
    </edge>
    <edge id=":TL_19" function="internal">
        <lane id=":TL_19_0" index="0" speed="11.36" length="20.90" shape="855.45,1045.89,-0.03 860.65,1049.01,-0.04 864.10,1054.76,-0.05 865.25,1062.81,-0.06" />
    </edge>

    <edge id="A2AA" from="A" to="AA" priority="-1">
        <lane id="A2AA_0" index="0" speed="17.88" length="254.89" shape="846.85,1322.50,-0.91 591.96,1322.50,-0.91" />