<net xmlns:xsi="http://www.w3.org/2001/XMLSchema-instance" version="1.9" junctionCornerDetail="5" limitTurnSpeed="5.50" xsi:noNamespaceSchemaLocation="http://sumo.dlr.de/xsd/net_file.xsd">

    <location netOffset="636.32,633.48" convBoundary="0.00,0.00,1319.12,1582.28" origBoundary="-636.32,-633.48,682.80,948.80" projParameter="!" />

    <edge id=":A_0" function="internal">
        <lane id=":A_0_0" index="0" speed="6.51" length="9.03" shape="634.72,1115.08,24.57 634.37,1112.63,24.57 633.32,1110.88,24.57 631.57,1109.83,24.57 629.12,1109.48,24.57" />
    </edge>
    <edge id=":A_1" function="internal">
        <lane id=":A_1_0" index="0" speed="11.18" length="14.40" shape="634.72,1115.08,24.57 634.72,1100.68,24.57" />
    </edge>
    <edge id=":A_2" function="internal">
        <lane id=":A_2_0" index="0" speed="8.00" length="4.07" shape="634.72,1115.08,24.57 635.27,1111.23,24.57 635.36,1111.08,24.57" />
    </edge>
    <edge id=":A_3" function="internal">
        <lane id=":A_3_0" index="0" speed="3.65" length="1.44" shape="634.72,1115.08,24.57 635.52,1113.88,24.57" />
    </edge>
    <edge id=":A_16" function="internal">
        <lane id=":A_16_0" index="0" speed="8.00" length="10.13" shape="635.36,1111.08,24.57 636.92,1108.48,24.57 639.67,1106.83,24.57 643.52,1106.28,24.57" />
    </edge>
    <edge id=":A_17" function="internal">
        <lane id=":A_17_0" index="0" speed="3.65" length="3.23" shape="635.52,1113.88,24.57 636.32,1113.48,24.57 637.12,1113.88,24.57 637.92,1115.08,24.57" />
    </edge>
    <edge id=":A_4" function="internal">
        <lane id=":A_4_0" index="0" speed="6.51" length="9.03" shape="643.52,1109.48,24.57 641.07,1109.83,24.57 639.32,1110.88,24.57 638.27,1112.63,24.57 637.92,1115.08,24.57" />
    </edge>
    <edge id=":A_5" function="internal">
        <lane id=":A_5_0" index="0" speed="11.18" length="14.40" shape="643.52,1109.48,24.57 629.12,1109.48,24.57" />
    </edge>
    <edge id=":A_6" function="internal">
        <lane id=":A_6_0" index="0" speed="8.00" length="4.07" shape="643.52,1109.48,24.57 639.67,1108.93,24.57 639.52,1108.84,24.57" />
    </edge>
    <edge id=":A_7" function="internal">
        <lane id=":A_7_0" index="0" speed="3.65" length="1.44" shape="643.52,1109.48,24.57 642.32,1108.68,24.57" />
    </edge>
    <edge id=":A_18" function="internal">
        <lane id=":A_18_0" index="0" speed="8.00" length="10.13" shape="639.52,1108.84,24.57 636.92,1107.28,24.57 635.27,1104.53,24.57 634.72,1100.68,24.57" />
    </edge>
    <edge id=":A_19" function="internal">
        <lane id=":A_19_0" index="0" speed="3.65" length="3.23" shape="642.32,1108.68,24.57 641.92,1107.88,24.57 642.32,1107.08,24.57 643.52,1106.28,24.57" />
    </edge>
    <edge id=":A_8" function="internal">
        <lane id=":A_8_0" index="0" speed="6.51" length="9.03" shape="637.92,1100.68,24.57 638.27,1103.13,24.57 639.32,1104.88,24.57 641.07,1105.93,24.57 643.52,1106.28,24.57" />
    </edge>
    <edge id=":A_9" function="internal">
        <lane id=":A_9_0" index="0" speed="11.18" length="14.40" shape="637.92,1100.68,24.57 637.92,1115.08,24.57" />
    </edge>
    <edge id=":A_10" function="internal">
        <lane id=":A_10_0" index="0" speed="8.00" length="4.07" shape="637.92,1100.68,24.57 637.37,1104.53,24.57 637.28,1104.68,24.57" />
    </edge>
    <edge id=":A_11" function="internal">
        <lane id=":A_11_0" index="0" speed="3.65" length="1.44" shape="637.92,1100.68,24.57 637.12,1101.88,24.57" />
    </edge>
    <edge id=":A_20" function="internal">
        <lane id=":A_20_0" index="0" speed="8.00" length="10.13" shape="637.28,1104.68,24.57 635.72,1107.28,24.57 632.97,1108.93,24.57 629.12,1109.48,24.57" />
    </edge>
    <edge id=":A_21" function="internal">
        <lane id=":A_21_0" index="0" speed="3.65" length="3.23" shape="637.12,1101.88,24.57 636.32,1102.28,24.57 635.52,1101.88,24.57 634.72,1100.68,24.57" />
    </edge>
    <edge id=":A_12" function="internal">
        <lane id=":A_12_0" index="0" speed="6.51" length="9.03" shape="629.12,1106.28,24.57 631.57,1105.93,24.57 633.32,1104.88,24.57 634.37,1103.13,24.57 634.72,1100.68,24.57" />
    </edge>
    <edge id=":A_13" function="internal">
        <lane id=":A_13_0" index="0" speed="11.18" length="14.40" shape="629.12,1106.28,24.57 643.52,1106.28,24.57" />
    </edge>
    <edge id=":A_14" function="internal">
        <lane id=":A_14_0" index="0" speed="8.00" length="4.07" shape="629.12,1106.28,24.57 632.97,1106.83,24.57 633.12,1106.92,24.57" />
    </edge>
    <edge id=":A_15" function="internal">
        <lane id=":A_15_0" index="0" speed="3.65" length="1.44" shape="629.12,1106.28,24.57 630.32,1107.08,24.57" />
    </edge>
    <edge id=":A_22" function="internal">
        <lane id=":A_22_0" index="0" speed="8.00" length="10.13" shape="633.12,1106.92,24.57 635.72,1108.48,24.57 637.37,1111.23,24.57 637.92,1115.08,24.57" />
    </edge>
    <edge id=":A_23" function="internal">
        <lane id=":A_23_0" index="0" speed="3.65" length="3.23" shape="630.32,1107.08,24.57 630.72,1107.88,24.57 630.32,1108.68,24.57 629.12,1109.48,24.57" />
    </edge>
    <edge id=":AA_0" function="internal">
        <lane id=":AA_0_0" index="0" speed="3.65" length="4.67" shape="161.92,1109.48,24.57 160.72,1108.68,24.57 160.32,1107.88,24.57 160.72,1107.08,24.57 161.92,1106.28,24.57" />
    </edge>
    <edge id=":AB_0" function="internal">
        <lane id=":AB_0_0" index="0" speed="3.65" length="4.67" shape="637.92,1582.28,24.57 637.12,1583.48,24.57 636.32,1583.88,24.57 635.52,1583.48,24.57 634.72,1582.28,24.57" />
    </edge>
    <edge id=":AC_0" function="internal">
        <lane id=":AC_0_0" index="0" speed="3.65" length="4.67" shape="1110.72,1106.28,24.57 1111.92,1107.08,24.57 1112.32,1107.88,24.57 1111.92,1108.68,24.57 1110.72,1109.48,24.57" />
    </edge>
    <edge id=":B_0" function="internal">
        <lane id=":B_0_0" index="0" speed="7.33" length="11.73" shape="976.12,640.68,-2.08 975.57,638.23,-2.07 973.92,636.48,-2.05 971.17,635.43,-2.04 967.32,635.08,-2.02" />
    </edge>
    <edge id=":B_1" function="internal">
        <lane id=":B_1_0" index="0" speed="13.41" length="17.60" shape="976.12,640.68,-2.08 976.12,623.08,-2.08" />
    </edge>
    <edge id=":B_2" function="internal">
        <lane id=":B_2_0" index="0" speed="8.67" length="3.71" shape="976.12,640.68,-2.08 976.83,637.04,-2.08" />
    </edge>
    <edge id=":B_3" function="internal">
        <lane id=":B_3_0" index="0" speed="3.65" length="1.44" shape="976.12,640.68,-2.08 976.92,639.48,-2.08" />
    </edge>
    <edge id=":B_17" function="internal">
        <lane id=":B_17_0" index="0" speed="8.67" length="13.14" shape="976.83,637.04,-2.08 976.87,636.83,-2.08 979.12,634.08,-2.08 982.87,632.43,-2.08 988.12,631.88,-2.08" />
    </edge>
    <edge id=":B_18" function="internal">
        <lane id=":B_18_0" index="0" speed="3.65" length="3.23" shape="976.92,639.48,-2.08 977.72,639.08,-2.08 978.52,639.48,-2.08 979.32,640.68,-2.08" />
    </edge>
    <edge id=":B_4" function="internal">
        <lane id=":B_4_0" index="0" speed="6.51" length="9.03" shape="988.12,635.08,-2.08 985.67,635.43,-2.08 983.92,636.48,-2.08 982.87,638.23,-2.08 982.52,640.68,-2.08" />
    </edge>
    <edge id=":B_5" function="internal">
        <lane id=":B_5_0" index="0" speed="13.41" length="20.80" shape="988.12,635.08,-2.08 967.32,635.08,-2.02" />
    </edge>
    <edge id=":B_6" function="internal">
        <lane id=":B_6_0" index="0" speed="9.26" length="5.01" shape="988.12,635.08,-2.08 983.16,634.37,-2.08" />
    </edge>
    <edge id=":B_7" function="internal">
        <lane id=":B_7_0" index="0" speed="3.65" length="1.44" shape="988.12,635.08,-2.08 986.92,634.28,-2.08" />
    </edge>
    <edge id=":B_19" function="internal">
        <lane id=":B_19_0" index="0" speed="9.26" length="14.34" shape="983.16,634.37,-2.08 982.87,634.33,-2.08 979.12,632.08,-2.08 976.87,628.33,-2.08 976.12,623.08,-2.08" />
    </edge>
    <edge id=":B_20" function="internal">
        <lane id=":B_20_0" index="0" speed="3.65" length="3.23" shape="986.92,634.28,-2.08 986.52,633.48,-2.08 986.92,632.68,-2.08 988.12,631.88,-2.08" />
    </edge>
    <edge id=":B_8" function="internal">
        <lane id=":B_8_0" index="0" speed="7.33" length="11.73" shape="979.32,623.08,-2.08 979.87,625.53,-2.08 981.52,627.28,-2.08 984.27,628.33,-2.08 988.12,628.68,-2.08" />
    </edge>
    <edge id=":B_9" function="internal">
        <lane id=":B_9_0" index="0" speed="13.41" length="17.60" shape="979.32,623.08,-2.08 979.32,640.68,-2.08" />
    </edge>
    <edge id=":B_10" function="internal">
        <lane id=":B_10_0" index="0" speed="9.26" length="5.01" shape="979.32,623.08,-2.08 978.61,628.05,-2.06" />
    </edge>
    <edge id=":B_11" function="internal">
        <lane id=":B_11_0" index="0" speed="3.65" length="1.44" shape="979.32,623.08,-2.08 978.52,624.28,-2.08" />
    </edge>
    <edge id=":B_21" function="internal">
        <lane id=":B_21_0" index="0" speed="9.26" length="14.34" shape="978.61,628.05,-2.06 978.57,628.33,-2.06 976.32,632.08,-2.05 972.57,634.33,-2.04 967.32,635.08,-2.02" />
    </edge>
    <edge id=":B_22" function="internal">
        <lane id=":B_22_0" index="0" speed="3.65" length="3.23" shape="978.52,624.28,-2.08 977.72,624.68,-2.08 976.92,624.28,-2.08 976.12,623.08,-2.08" />
    </edge>
    <edge id=":B_12" function="internal">
        <lane id=":B_12_0" index="0" speed="6.51" length="9.03" shape="967.32,628.68,-2.02 969.77,628.33,-2.04 971.52,627.28,-2.05 972.57,625.53,-2.06 972.92,623.08,-2.08" />
    </edge>
    <edge id=":B_13" function="internal">
        <lane id=":B_13_0" index="0" speed="13.41" length="20.80" shape="967.32,628.68,-2.02 988.12,628.68,-2.08" />
        <lane id=":B_13_1" index="1" speed="13.41" length="20.80" shape="967.32,631.88,-2.02 988.12,631.88,-2.08" />
    </edge>
    <edge id=":B_15" function="internal">
        <lane id=":B_15_0" index="0" speed="8.67" length="5.56" shape="967.32,631.88,-2.02 972.57,632.43,-2.04 972.83,632.55,-2.04" />
    </edge>
    <edge id=":B_16" function="internal">
        <lane id=":B_16_0" index="0" speed="3.65" length="1.44" shape="967.32,631.88,-2.02 968.52,632.68,-2.02" />
    </edge>
    <edge id=":B_23" function="internal">
        <lane id=":B_23_0" index="0" speed="8.67" length="11.29" shape="972.83,632.55,-2.04 976.32,634.08,-2.05 978.57,636.83,-2.07 979.32,640.68,-2.08" />
    </edge>
    <edge id=":B_24" function="internal">
        <lane id=":B_24_0" index="0" speed="3.65" length="3.23" shape="968.52,632.68,-2.02 968.92,633.48,-2.02 968.52,634.28,-2.02 967.32,635.08,-2.02" />
    </edge>
    <edge id=":BA_0" function="internal">
        <lane id=":BA_0_0" index="0" speed="3.65" length="4.67" shape="979.32,974.88,-2.08 978.52,976.08,-2.08 977.72,976.48,-2.08 976.92,976.08,-2.08 976.12,974.88,-2.08" />
    </edge>
    <edge id=":BB_0" function="internal">
        <lane id=":BB_0_0" index="0" speed="3.65" length="4.67" shape="1319.12,631.88,-2.08 1320.32,632.68,-2.08 1320.72,633.48,-2.08 1320.32,634.28,-2.08 1319.12,635.08,-2.08" />
    </edge>
    <edge id=":BC_0" function="internal">
        <lane id=":BC_0_0" index="0" speed="3.65" length="4.67" shape="976.12,292.08,-2.08 976.92,290.88,-2.08 977.72,290.48,-2.08 978.52,290.88,-2.08 979.32,292.08,-2.08" />
    </edge>
    <edge id=":B_intern_0" function="internal">
        <lane id=":B_intern_0_0" index="0" speed="13.41" length="8.40" shape="690.32,635.08,-0.33 687.86,635.58,-0.32 686.32,636.68,-0.30 684.78,637.78,-0.29 682.32,638.28,-0.28" />
        <lane id=":B_intern_0_1" index="1" speed="13.41" length="8.40" shape="690.32,635.08,-0.33 682.32,635.08,-0.28" />
    </edge>
    <edge id=":C_0" function="internal">
        <lane id=":C_0_0" index="0" speed="6.51" length="9.03" shape="634.72,323.94,-35.45 634.37,321.49,-35.45 633.32,319.74,-35.45 631.57,318.69,-35.45 629.12,318.34,-35.45" />
    </edge>
    <edge id=":C_1" function="internal">
        <lane id=":C_1_0" index="0" speed="11.18" length="14.40" shape="634.72,323.94,-35.45 634.72,309.54,-35.45" />
    </edge>
    <edge id=":C_2" function="internal">
        <lane id=":C_2_0" index="0" speed="8.00" length="4.07" shape="634.72,323.94,-35.45 635.27,320.09,-35.45 635.36,319.94,-35.45" />
    </edge>
    <edge id=":C_3" function="internal">
        <lane id=":C_3_0" index="0" speed="3.65" length="1.44" shape="634.72,323.94,-35.45 635.52,322.74,-35.45" />
    </edge>
    <edge id=":C_16" function="internal">
        <lane id=":C_16_0" index="0" speed="8.00" length="10.13" shape="635.36,319.94,-35.45 636.92,317.34,-35.45 639.67,315.69,-35.45 643.52,315.14,-35.45" />
    </edge>
    <edge id=":C_17" function="internal">
        <lane id=":C_17_0" index="0" speed="3.65" length="3.23" shape="635.52,322.74,-35.45 636.32,322.34,-35.45 637.12,322.74,-35.45 637.92,323.94,-35.45" />
    </edge>
    <edge id=":C_4" function="internal">
        <lane id=":C_4_0" index="0" speed="6.51" length="9.03" shape="643.52,318.34,-35.45 641.07,318.69,-35.45 639.32,319.74,-35.45 638.27,321.49,-35.45 637.92,323.94,-35.45" />
    </edge>
    <edge id=":C_5" function="internal">
        <lane id=":C_5_0" index="0" speed="11.18" length="14.40" shape="643.52,318.34,-35.45 629.12,318.34,-35.45" />
    </edge>
    <edge id=":C_6" function="internal">
        <lane id=":C_6_0" index="0" speed="8.00" length="4.07" shape="643.52,318.34,-35.45 639.67,317.79,-35.45 639.52,317.70,-35.45" />
    </edge>
    <edge id=":C_7" function="internal">
        <lane id=":C_7_0" index="0" speed="3.65" length="1.44" shape="643.52,318.34,-35.45 642.32,317.54,-35.45" />
    </edge>
    <edge id=":C_18" function="internal">
        <lane id=":C_18_0" index="0" speed="8.00" length="10.13" shape="639.52,317.70,-35.45 636.92,316.14,-35.45 635.27,313.39,-35.45 634.72,309.54,-35.45" />
    </edge>
    <edge id=":C_19" function="internal">
        <lane id=":C_19_0" index="0" speed="3.65" length="3.23" shape="642.32,317.54,-35.45 641.92,316.74,-35.45 642.32,315.94,-35.45 643.52,315.14,-35.45" />
    </edge>
    <edge id=":C_8" function="internal">
        <lane id=":C_8_0" index="0" speed="6.51" length="9.03" shape="637.92,309.54,-35.45 638.27,311.99,-35.45 639.32,313.74,-35.45 641.07,314.79,-35.45 643.52,315.14,-35.45" />
    </edge>
    <edge id=":C_9" function="internal">
        <lane id=":C_9_0" index="0" speed="11.18" length="14.40" shape="637.92,309.54,-35.45 637.92,323.94,-35.45" />
    </edge>
    <edge id=":C_10" function="internal">
        <lane id=":C_10_0" index="0" speed="8.00" length="4.07" shape="637.92,309.54,-35.45 637.37,313.39,-35.45 637.28,313.54,-35.45" />
    </edge>
    <edge id=":C_11" function="internal">
        <lane id=":C_11_0" index="0" speed="3.65" length="1.44" shape="637.92,309.54,-35.45 637.12,310.74,-35.45" />
    </edge>
    <edge id=":C_20" function="internal">
        <lane id=":C_20_0" index="0" speed="8.00" length="10.13" shape="637.28,313.54,-35.45 635.72,316.14,-35.45 632.97,317.79,-35.45 629.12,318.34,-35.45" />
    </edge>
    <edge id=":C_21" function="internal">
        <lane id=":C_21_0" index="0" speed="3.65" length="3.23" shape="637.12,310.74,-35.45 636.32,311.14,-35.45 635.52,310.74,-35.45 634.72,309.54,-35.45" />
    </edge>
    <edge id=":C_12" function="internal">
        <lane id=":C_12_0" index="0" speed="6.51" length="9.03" shape="629.12,315.14,-35.45 631.57,314.79,-35.45 633.32,313.74,-35.45 634.37,311.99,-35.45 634.72,309.54,-35.45" />
    </edge>
    <edge id=":C_13" function="internal">
        <lane id=":C_13_0" index="0" speed="11.18" length="14.40" shape="629.12,315.14,-35.45 643.52,315.14,-35.45" />
    </edge>
    <edge id=":C_14" function="internal">
        <lane id=":C_14_0" index="0" speed="8.00" length="4.07" shape="629.12,315.14,-35.45 632.97,315.69,-35.45 633.12,315.78,-35.45" />
    </edge>
    <edge id=":C_15" function="internal">
        <lane id=":C_15_0" index="0" speed="3.65" length="1.44" shape="629.12,315.14,-35.45 630.32,315.94,-35.45" />
    </edge>
    <edge id=":C_22" function="internal">
        <lane id=":C_22_0" index="0" speed="8.00" length="10.13" shape="633.12,315.78,-35.45 635.72,317.34,-35.45 637.37,320.09,-35.45 637.92,323.94,-35.45" />
    </edge>
    <edge id=":C_23" function="internal">
        <lane id=":C_23_0" index="0" speed="3.65" length="3.23" shape="630.32,315.94,-35.45 630.72,316.74,-35.45 630.32,317.54,-35.45 629.12,318.34,-35.45" />
    </edge>
    <edge id=":CA_0" function="internal">
        <lane id=":CA_0_0" index="0" speed="3.65" length="4.67" shape="953.06,315.14,-35.45 954.26,315.94,-35.45 954.66,316.74,-35.45 954.26,317.54,-35.45 953.06,318.34,-35.45" />
    </edge>
    <edge id=":CB_0" function="internal">
        <lane id=":CB_0_0" index="0" speed="3.65" length="4.67" shape="634.72,0.00,-35.45 635.52,-1.20,-35.45 636.32,-1.60,-35.45 637.12,-1.20,-35.45 637.92,0.00,-35.45" />
    </edge>
    <edge id=":CC_0" function="internal">
        <lane id=":CC_0_0" index="0" speed="3.65" length="4.67" shape="319.58,318.34,-35.45 318.38,317.54,-35.45 317.98,316.74,-35.45 318.38,315.94,-35.45 319.58,315.14,-35.45" />
    </edge>
    <edge id=":C_intern_0" function="internal">
        <lane id=":C_intern_0_0" index="0" speed="11.18" length="8.45" shape="637.92,579.48,-6.06 638.42,581.94,-5.80 639.52,583.48,-5.60 640.62,585.02,-5.41 641.12,587.48,-5.15" />
        <lane id=":C_intern_0_1" index="1" speed="11.18" length="8.45" shape="637.92,579.48,-6.06 637.92,587.48,-5.15" />
    </edge>
    <edge id=":D_0" function="internal">
        <lane id=":D_0_0" index="0" speed="6.51" length="9.03" shape="313.36,640.68,-3.10 313.01,638.23,-3.10 311.96,636.48,-3.10 310.21,635.43,-3.10 307.76,635.08,-3.10" />
    </edge>
    <edge id=":D_1" function="internal">
        <lane id=":D_1_0" index="0" speed="13.41" length="17.95" shape="313.36,640.68,-3.10 313.86,634.86,-3.10 314.96,630.40,-3.10 316.06,626.68,-3.10 316.56,623.08,-3.10" />
    </edge>
    <edge id=":D_2" function="internal">
        <lane id=":D_2_0" index="0" speed="8.67" length="4.68" shape="316.56,640.68,-3.10 317.31,636.83,-3.08 317.79,636.25,-3.07" />
    </edge>
    <edge id=":D_3" function="internal">
        <lane id=":D_3_0" index="0" speed="3.65" length="1.44" shape="316.56,640.68,-3.10 317.36,639.48,-3.10" />
    </edge>
    <edge id=":D_17" function="internal">
        <lane id=":D_17_0" index="0" speed="8.67" length="12.17" shape="317.79,636.25,-3.07 319.56,634.08,-3.06 323.31,632.43,-3.03 328.56,631.88,-3.00" />
    </edge>
    <edge id=":D_18" function="internal">
        <lane id=":D_18_0" index="0" speed="3.65" length="3.23" shape="317.36,639.48,-3.10 318.16,639.08,-3.10 318.96,639.48,-3.10 319.76,640.68,-3.10" />
    </edge>
    <edge id=":D_4" function="internal">
        <lane id=":D_4_0" index="0" speed="7.33" length="11.73" shape="328.56,635.08,-3.00 324.71,635.43,-3.04 321.96,636.48,-3.06 320.31,638.23,-3.08 319.76,640.68,-3.10" />
    </edge>
    <edge id=":D_5" function="internal">
        <lane id=":D_5_0" index="0" speed="13.41" length="20.80" shape="328.56,635.08,-3.00 307.76,635.08,-3.10" />
    </edge>
    <edge id=":D_6" function="internal">
        <lane id=":D_6_0" index="0" speed="9.26" length="5.01" shape="328.56,635.08,-3.00 323.60,634.37,-3.03" />
    </edge>
    <edge id=":D_7" function="internal">
        <lane id=":D_7_0" index="0" speed="3.65" length="1.44" shape="328.56,635.08,-3.00 327.36,634.28,-3.00" />
    </edge>
    <edge id=":D_19" function="internal">
        <lane id=":D_19_0" index="0" speed="9.26" length="14.34" shape="323.60,634.37,-3.03 323.31,634.33,-3.03 319.56,632.08,-3.05 317.31,628.33,-3.08 316.56,623.08,-3.10" />
    </edge>
    <edge id=":D_20" function="internal">
        <lane id=":D_20_0" index="0" speed="3.65" length="3.23" shape="327.36,634.28,-3.00 326.96,633.48,-3.00 327.36,632.68,-3.00 328.56,631.88,-3.00" />
    </edge>
    <edge id=":D_8" function="internal">
        <lane id=":D_8_0" index="0" speed="6.51" length="9.03" shape="322.96,623.08,-3.10 323.31,625.53,-3.08 324.36,627.28,-3.05 326.11,628.33,-3.03 328.56,628.68,-3.00" />
    </edge>
    <edge id=":D_9" function="internal">
        <lane id=":D_9_0" index="0" speed="13.41" length="17.95" shape="322.96,623.08,-3.10 322.46,628.90,-3.10 321.36,633.36,-3.10 320.26,637.08,-3.10 319.76,640.68,-3.10" />
    </edge>
    <edge id=":D_10" function="internal">
        <lane id=":D_10_0" index="0" speed="9.26" length="8.24" shape="319.76,623.08,-3.10 319.01,628.33,-3.10 317.50,630.85,-3.10" />
    </edge>
    <edge id=":D_11" function="internal">
        <lane id=":D_11_0" index="0" speed="3.65" length="1.44" shape="319.76,623.08,-3.10 318.96,624.28,-3.10" />
    </edge>
    <edge id=":D_21" function="internal">
        <lane id=":D_21_0" index="0" speed="9.26" length="11.12" shape="317.50,630.85,-3.10 316.76,632.08,-3.10 313.01,634.33,-3.10 307.76,635.08,-3.10" />
    </edge>
    <edge id=":D_22" function="internal">
        <lane id=":D_22_0" index="0" speed="3.65" length="3.23" shape="318.96,624.28,-3.10 318.16,624.68,-3.10 317.36,624.28,-3.10 316.56,623.08,-3.10" />
    </edge>
    <edge id=":D_12" function="internal">
        <lane id=":D_12_0" index="0" speed="7.33" length="11.73" shape="307.76,628.68,-3.10 311.61,628.33,-3.10 314.36,627.28,-3.10 316.01,625.53,-3.10 316.56,623.08,-3.10" />
    </edge>
    <edge id=":D_13" function="internal">
        <lane id=":D_13_0" index="0" speed="13.41" length="20.80" shape="307.76,628.68,-3.10 328.56,628.68,-3.00" />
        <lane id=":D_13_1" index="1" speed="13.41" length="20.80" shape="307.76,631.88,-3.10 328.56,631.88,-3.00" />
    </edge>
    <edge id=":D_15" function="internal">
        <lane id=":D_15_0" index="0" speed="8.67" length="5.56" shape="307.76,631.88,-3.10 313.01,632.43,-3.10 313.27,632.55,-3.10" />
    </edge>
    <edge id=":D_16" function="internal">
        <lane id=":D_16_0" index="0" speed="3.65" length="1.44" shape="307.76,631.88,-3.10 308.96,632.68,-3.10" />
    </edge>
    <edge id=":D_23" function="internal">
        <lane id=":D_23_0" index="0" speed="8.67" length="11.29" shape="313.27,632.55,-3.10 316.76,634.08,-3.10 319.01,636.83,-3.10 319.76,640.68,-3.10" />
    </edge>
    <edge id=":D_24" function="internal">
        <lane id=":D_24_0" index="0" speed="3.65" length="3.23" shape="308.96,632.68,-3.10 309.36,633.48,-3.10 308.96,634.28,-3.10 307.76,635.08,-3.10" />
    </edge>
    <edge id=":DA_0" function="internal">
        <lane id=":DA_0_0" index="0" speed="3.65" length="4.67" shape="316.56,315.32,-3.10 317.36,314.12,-3.10 318.16,313.72,-3.10 318.96,314.12,-3.10 319.76,315.32,-3.10" />
    </edge>
    <edge id=":DB_0" function="internal">
        <lane id=":DB_0_0" index="0" speed="3.65" length="4.67" shape="-0.00,635.08,-3.10 -1.20,634.28,-3.10 -1.60,633.48,-3.10 -1.20,632.68,-3.10 0.00,631.88,-3.10" />
    </edge>
    <edge id=":DC_0" function="internal">
        <lane id=":DC_0_0" index="0" speed="3.65" length="4.67" shape="319.76,951.64,-3.10 318.96,952.84,-3.10 318.16,953.24,-3.10 317.36,952.84,-3.10 316.56,951.64,-3.10" />
    </edge>
    <edge id=":TL_0" function="internal">
        <lane id=":TL_0_0" index="0" speed="7.33" length="11.73" shape="634.72,643.88 634.37,640.03,-0.02 633.32,637.28,-0.04 631.57,635.63,-0.06 629.12,635.08,-0.07" />
    </edge>
    <edge id=":TL_1" function="internal">
        <lane id=":TL_1_0" index="0" speed="11.18" length="20.80" shape="634.72,643.88 634.72,623.08" />
    </edge>
    <edge id=":TL_2" function="internal">
        <lane id=":TL_2_0" index="0" speed="7.33" length="11.73" shape="646.72,638.28,-0.06 642.87,638.63,-0.04 640.12,639.68,-0.03 638.47,641.43,-0.01 637.92,643.88" />
    </edge>
    <edge id=":TL_3" function="internal">
        <lane id=":TL_3_0" index="0" speed="13.41" length="17.95" shape="646.72,638.28,-0.06 640.90,637.78,-0.07 636.44,636.68,-0.07 632.72,635.58,-0.07 629.12,635.08,-0.07" />
    </edge>
    <edge id=":TL_4" function="internal">
        <lane id=":TL_4_0" index="0" speed="9.26" length="10.42" shape="646.72,635.08,-0.06 641.47,634.33,-0.05 637.72,632.08,-0.03 637.34,631.44,-0.03" />
    </edge>
    <edge id=":TL_11" function="internal">
        <lane id=":TL_11_0" index="0" speed="9.26" length="8.93" shape="637.34,631.44,-0.03 635.47,628.33,-0.02 634.72,623.08" />
    </edge>
    <edge id=":TL_5" function="internal">
        <lane id=":TL_5_0" index="0" speed="6.51" length="9.03" shape="641.12,623.08 641.47,625.53,-0.02 642.52,627.28,-0.03 644.27,628.33,-0.05 646.72,628.68,-0.06" />
    </edge>
    <edge id=":TL_6" function="internal">
        <lane id=":TL_6_0" index="0" speed="11.18" length="21.09" shape="641.12,623.08 640.62,629.85 639.52,635.36 638.42,639.93 637.92,643.88" />
    </edge>
    <edge id=":TL_7" function="internal">
        <lane id=":TL_7_0" index="0" speed="8.67" length="5.56" shape="637.92,623.08 637.37,628.33,-0.02 637.26,628.59,-0.02" />
    </edge>
    <edge id=":TL_12" function="internal">
        <lane id=":TL_12_0" index="0" speed="8.67" length="11.29" shape="637.26,628.59,-0.02 635.72,632.08,-0.04 632.97,634.33,-0.05 629.12,635.08,-0.07" />
    </edge>
    <edge id=":TL_8" function="internal">
        <lane id=":TL_8_0" index="0" speed="6.51" length="9.03" shape="629.12,628.68,-0.07 631.57,628.33,-0.05 633.32,627.28,-0.04 634.37,625.53,-0.02 634.72,623.08" />
    </edge>
    <edge id=":TL_9" function="internal">
        <lane id=":TL_9_0" index="0" speed="13.41" length="17.60" shape="629.12,628.68,-0.07 646.72,628.68,-0.06" />
    </edge>
    <edge id=":TL_10" function="internal">
        <lane id=":TL_10_0" index="0" speed="8.67" length="4.68" shape="629.12,631.88,-0.07 632.97,632.63,-0.05 633.56,633.11,-0.05" />
    </edge>
    <edge id=":TL_13" function="internal">
        <lane id=":TL_13_0" index="0" speed="8.67" length="12.17" shape="633.56,633.11,-0.05 635.72,634.88,-0.04 637.37,638.63,-0.02 637.92,643.88" />
    </edge>

    <edge id="A2AA" from="A" to="AA" priority="-1">
        <lane id="A2AA_0" index="0" speed="11.18" length="467.20" shape="629.12,1109.48,24.57 161.92,1109.48,24.57" />
    </edge>
    <edge id="A2AB" from="A" to="AB" priority="-1">
        <lane id="A2AB_0" index="0" speed="11.18" length="467.20" shape="637.92,1115.08,24.57 637.92,1582.28,24.57" />
    </edge>
    <edge id="A2AC" from="A" to="AC" priority="-1">
        <lane id="A2AC_0" index="0" speed="11.18" length="467.20" shape="643.52,1106.28,24.57 1110.72,1106.28,24.57" />
    </edge>
    <edge id="A2TL" from="A" to="TL" priority="-1">
        <lane id="A2TL_0" index="0" speed="11.18" length="457.46" shape="634.72,1100.68,24.57 634.72,643.88" />
    </edge>
    <edge id="AA2A" from="AA" to="A" priority="-1">
        <lane id="AA2A_0" index="0" speed="11.18" length="467.20" shape="161.92,1106.28,24.57 629.12,1106.28,24.57" />
    </edge>
    <edge id="AB2A" from="AB" to="A" priority="-1">
        <lane id="AB2A_0" index="0" speed="11.18" length="467.20" shape="634.72,1582.28,24.57 634.72,1115.08,24.57" />
    </edge>
    <edge id="AC2A" from="AC" to="A" priority="-1">
        <lane id="AC2A_0" index="0" speed="11.18" length="467.20" shape="1110.72,1109.48,24.57 643.52,1109.48,24.57" />
    </edge>
    <edge id="B2BA" from="B" to="BA" priority="-1">
        <lane id="B2BA_0" index="0" speed="13.41" length="334.20" shape="982.52,640.68,-2.08 982.52,974.88,-2.08" />
        <lane id="B2BA_1" index="1" speed="13.41" length="334.20" shape="979.32,640.68,-2.08 979.32,974.88,-2.08" />
    </edge>
    <edge id="B2BB" from="B" to="BB" priority="-1">
        <lane id="B2BB_0" index="0" speed="13.41" length="331.00" shape="988.12,628.68,-2.08 1319.12,628.68,-2.08" />
        <lane id="B2BB_1" index="1" speed="13.41" length="331.00" shape="988.12,631.88,-2.08 1319.12,631.88,-2.08" />
    </edge>
    <edge id="B2BC" from="B" to="BC" priority="-1">
        <lane id="B2BC_0" index="0" speed="13.41" length="331.00" shape="972.92,623.08,-2.08 972.92,292.08,-2.08" />
        <lane id="B2BC_1" index="1" speed="13.41" length="331.00" shape="976.12,623.08,-2.08 976.12,292.08,-2.08" />
    </edge>
    <edge id="B2TL" from="B" to="B_intern" priority="-1">
        <lane id="B2TL_0" index="0" speed="13.41" length="277.00" shape="967.32,635.08,-2.02 690.32,635.08,-0.33" />
    </edge>
    <edge id="B2TL_intern" from="B_intern" to="TL" priority="-1">
        <lane id="B2TL_intern_0" index="0" speed="13.41" length="35.60" shape="682.32,638.28,-0.28 646.72,638.28,-0.06" />
        <lane id="B2TL_intern_1" index="1" speed="13.41" length="35.60" shape="682.32,635.08,-0.28 646.72,635.08,-0.06" />
    </edge>
    <edge id="BA2B" from="BA" to="B" priority="-1">
        <lane id="BA2B_0" index="0" speed="13.41" length="334.20" shape="976.12,974.88,-2.08 976.12,640.68,-2.08" />
    </edge>
    <edge id="BB2B" from="BB" to="B" priority="-1">
        <lane id="BB2B_0" index="0" speed="13.41" length="331.00" shape="1319.12,635.08,-2.08 988.12,635.08,-2.08" />
    </edge>
    <edge id="BC2B" from="BC" to="B" priority="-1">
        <lane id="BC2B_0" index="0" speed="13.41" length="331.00" shape="979.32,292.08,-2.08 979.32,623.08,-2.08" />
    </edge>
    <edge id="C2CA" from="C" to="CA" priority="-1">
        <lane id="C2CA_0" index="0" speed="11.18" length="309.54" shape="643.52,315.14,-35.45 953.06,315.14,-35.45" />
    </edge>
    <edge id="C2CB" from="C" to="CB" priority="-1">
        <lane id="C2CB_0" index="0" speed="11.18" length="309.54" shape="634.72,309.54,-35.45 634.72,0.00,-35.45" />
    </edge>
    <edge id="C2CC" from="C" to="CC" priority="-1">
        <lane id="C2CC_0" index="0" speed="11.18" length="309.54" shape="629.12,318.34,-35.45 319.58,318.34,-35.45" />
    </edge>
    <edge id="C2TL" from="C" to="C_intern" priority="-1">
        <lane id="C2TL_0" index="0" speed="11.18" length="257.23" shape="637.92,323.94,-35.45 637.92,579.48,-6.06" />
    </edge>
    <edge id="C2TL_intern" from="C_intern" to="TL" priority="-1">