<net xmlns:xsi="http://www.w3.org/2001/XMLSchema-instance" version="1.9" junctionCornerDetail="5" limitTurnSpeed="5.50" xsi:noNamespaceSchemaLocation="http://sumo.dlr.de/xsd/net_file.xsd">

    <location netOffset="1727.27,1134.82" convBoundary="0.00,0.00,3562.08,2269.64" origBoundary="-1727.27,-1134.82,1834.82,1134.82" projParameter="!" />

    <edge id=":A_0" function="internal">
        <lane id=":A_0_0" index="0" speed="6.51" length="9.03" shape="1725.67,1440.24,-0.72 1725.32,1437.79,-0.72 1724.27,1436.04,-0.72 1722.52,1434.99,-0.72 1720.07,1434.64,-0.72" />
    </edge>
    <edge id=":A_1" function="internal">
        <lane id=":A_1_0" index="0" speed="17.88" length="20.80" shape="1725.67,1440.24,-0.72 1725.67,1419.44,-0.69" />
    </edge>
    <edge id=":A_2" function="internal">
        <lane id=":A_2_0" index="0" speed="9.26" length="5.01" shape="1725.67,1440.24,-0.72 1726.38,1435.27,-0.72" />
    </edge>
    <edge id=":A_3" function="internal">
        <lane id=":A_3_0" index="0" speed="3.65" length="1.44" shape="1725.67,1440.24,-0.72 1726.47,1439.04,-0.72" />
    </edge>
    <edge id=":A_17" function="internal">
        <lane id=":A_17_0" index="0" speed="9.26" length="14.34" shape="1726.38,1435.27,-0.72 1726.42,1434.99,-0.72 1728.67,1431.24,-0.72 1732.42,1428.99,-0.72 1737.67,1428.24,-0.72" />
    </edge>
    <edge id=":A_18" function="internal">
        <lane id=":A_18_0" index="0" speed="3.65" length="3.23" shape="1726.47,1439.04,-0.72 1727.27,1438.64,-0.72 1728.07,1439.04,-0.72 1728.87,1440.24,-0.72" />
    </edge>
    <edge id=":A_4" function="internal">
        <lane id=":A_4_0" index="0" speed="7.33" length="11.73" shape="1737.67,1431.44,-0.72 1735.22,1431.99,-0.72 1733.47,1433.64,-0.72 1732.42,1436.39,-0.72 1732.07,1440.24,-0.72" />
    </edge>
    <edge id=":A_5" function="internal">
        <lane id=":A_5_0" index="0" speed="17.88" length="17.60" shape="1737.67,1431.44,-0.72 1720.07,1431.44,-0.72" />
    </edge>
    <edge id=":A_6" function="internal">
        <lane id=":A_6_0" index="0" speed="9.26" length="5.01" shape="1737.67,1431.44,-0.72 1732.70,1430.73,-0.71" />
    </edge>
    <edge id=":A_7" function="internal">
        <lane id=":A_7_0" index="0" speed="3.65" length="1.44" shape="1737.67,1431.44,-0.72 1736.47,1430.64,-0.72" />
    </edge>
    <edge id=":A_19" function="internal">
        <lane id=":A_19_0" index="0" speed="9.26" length="14.34" shape="1732.70,1430.73,-0.71 1732.42,1430.69,-0.71 1728.67,1428.44,-0.71 1726.42,1424.69,-0.70 1725.67,1419.44,-0.69" />
    </edge>
    <edge id=":A_20" function="internal">
        <lane id=":A_20_0" index="0" speed="3.65" length="3.23" shape="1736.47,1430.64,-0.72 1736.07,1429.84,-0.72 1736.47,1429.04,-0.72 1737.67,1428.24,-0.72" />
    </edge>
    <edge id=":A_8" function="internal">
        <lane id=":A_8_0" index="0" speed="6.51" length="9.03" shape="1732.07,1419.44,-0.69 1732.42,1421.89,-0.70 1733.47,1423.64,-0.71 1735.22,1424.69,-0.71 1737.67,1425.04,-0.72" />
    </edge>
    <edge id=":A_9" function="internal">
        <lane id=":A_9_0" index="0" speed="17.88" length="20.80" shape="1732.07,1419.44,-0.69 1732.07,1440.24,-0.72" />
        <lane id=":A_9_1" index="1" speed="17.88" length="20.80" shape="1728.87,1419.44,-0.69 1728.87,1440.24,-0.72" />
    </edge>
    <edge id=":A_11" function="internal">
        <lane id=":A_11_0" index="0" speed="8.67" length="5.56" shape="1728.87,1419.44,-0.69 1728.32,1424.69,-0.70 1728.20,1424.94,-0.70" />
    </edge>
    <edge id=":A_12" function="internal">
        <lane id=":A_12_0" index="0" speed="3.65" length="1.44" shape="1728.87,1419.44,-0.69 1728.07,1420.64,-0.69" />
    </edge>
    <edge id=":A_21" function="internal">
        <lane id=":A_21_0" index="0" speed="8.67" length="11.29" shape="1728.20,1424.94,-0.70 1726.67,1428.44,-0.71 1723.92,1430.69,-0.71 1720.07,1431.44,-0.72" />
    </edge>
    <edge id=":A_22" function="internal">
        <lane id=":A_22_0" index="0" speed="3.65" length="3.23" shape="1728.07,1420.64,-0.69 1727.27,1421.04,-0.69 1726.47,1420.64,-0.69 1725.67,1419.44,-0.69" />
    </edge>
    <edge id=":A_13" function="internal">
        <lane id=":A_13_0" index="0" speed="7.33" length="11.73" shape="1720.07,1428.24,-0.72 1722.52,1427.69,-0.71 1724.27,1426.04,-0.71 1725.32,1423.29,-0.70 1725.67,1419.44,-0.69" />
    </edge>
    <edge id=":A_14" function="internal">
        <lane id=":A_14_0" index="0" speed="17.88" length="17.60" shape="1720.07,1428.24,-0.72 1737.67,1428.24,-0.72" />
    </edge>
    <edge id=":A_15" function="internal">
        <lane id=":A_15_0" index="0" speed="8.67" length="3.71" shape="1720.07,1428.24,-0.72 1723.71,1428.95,-0.72" />
    </edge>
    <edge id=":A_16" function="internal">
        <lane id=":A_16_0" index="0" speed="3.65" length="1.44" shape="1720.07,1428.24,-0.72 1721.27,1429.04,-0.72" />
    </edge>
    <edge id=":A_23" function="internal">
        <lane id=":A_23_0" index="0" speed="8.67" length="13.14" shape="1723.71,1428.95,-0.72 1723.92,1428.99,-0.72 1726.67,1431.24,-0.72 1728.32,1434.99,-0.72 1728.87,1440.24,-0.72" />
    </edge>
    <edge id=":A_24" function="internal">
        <lane id=":A_24_0" index="0" speed="3.65" length="3.23" shape="1721.27,1429.04,-0.72 1721.67,1429.84,-0.72 1721.27,1430.64,-0.72 1720.07,1431.44,-0.72" />
    </edge>
    <edge id=":AA_0" function="internal">
        <lane id=":AA_0_0" index="0" speed="3.65" length="4.67" shape="1432.25,1431.44,-0.72 1431.05,1430.64,-0.72 1430.65,1429.84,-0.72 1431.05,1429.04,-0.72 1432.25,1428.24,-0.72" />
    </edge>
    <edge id=":AB_0" function="internal">
        <lane id=":AB_0_0" index="0" speed="3.65" length="4.67" shape="1728.87,1724.86,-0.72 1728.07,1726.06,-0.72 1727.27,1726.46,-0.72 1726.47,1726.06,-0.72 1725.67,1724.86,-0.72" />
    </edge>
    <edge id=":AC_0" function="internal">
        <lane id=":AC_0_0" index="0" speed="3.65" length="4.67" shape="2022.29,1428.24,-0.72 2023.49,1429.04,-0.72 2023.89,1429.84,-0.72 2023.49,1430.64,-0.72 2022.29,1431.44,-0.72" />
    </edge>
    <edge id=":B_0" function="internal">
        <lane id=":B_0_0" index="0" speed="6.51" length="9.03" shape="2422.47,1145.22,7.94 2422.12,1142.77,7.89 2421.07,1141.02,7.86 2419.32,1139.97,7.82 2416.87,1139.62,7.78" />
    </edge>
    <edge id=":B_1" function="internal">
        <lane id=":B_1_0" index="0" speed="20.12" length="20.80" shape="2422.47,1145.22,7.94 2422.47,1124.42,7.94" />
        <lane id=":B_1_1" index="1" speed="20.12" length="20.80" shape="2425.67,1145.22,7.94 2425.67,1124.42,7.94" />
    </edge>
    <edge id=":B_3" function="internal">
        <lane id=":B_3_0" index="0" speed="9.26" length="5.01" shape="2425.67,1145.22,7.94 2426.38,1140.25,7.94" />
    </edge>
    <edge id=":B_4" function="internal">
        <lane id=":B_4_0" index="0" speed="3.65" length="1.44" shape="2425.67,1145.22,7.94 2426.47,1144.02,7.94" />
    </edge>
    <edge id=":B_20" function="internal">
        <lane id=":B_20_0" index="0" speed="9.26" length="14.34" shape="2426.38,1140.25,7.94 2426.42,1139.97,7.94 2428.67,1136.22,7.94 2432.42,1133.97,7.94 2437.67,1133.22,7.94" />
    </edge>
    <edge id=":B_21" function="internal">
        <lane id=":B_21_0" index="0" speed="3.65" length="3.23" shape="2426.47,1144.02,7.94 2427.27,1143.62,7.94 2428.07,1144.02,7.94 2428.87,1145.22,7.94" />
    </edge>
    <edge id=":B_5" function="internal">
        <lane id=":B_5_0" index="0" speed="6.51" length="9.03" shape="2437.67,1139.62,7.94 2435.22,1139.97,7.94 2433.47,1141.02,7.94 2432.42,1142.77,7.94 2432.07,1145.22,7.94" />
    </edge>
    <edge id=":B_6" function="internal">
        <lane id=":B_6_0" index="0" speed="20.12" length="20.80" shape="2437.67,1139.62,7.94 2416.87,1139.62,7.78" />
        <lane id=":B_6_1" index="1" speed="20.12" length="20.80" shape="2437.67,1136.42,7.94 2416.87,1136.42,7.78" />
    </edge>
    <edge id=":B_8" function="internal">
        <lane id=":B_8_0" index="0" speed="9.26" length="5.01" shape="2437.67,1136.42,7.94 2432.70,1135.71,7.94" />
    </edge>
    <edge id=":B_9" function="internal">
        <lane id=":B_9_0" index="0" speed="3.65" length="1.44" shape="2437.67,1136.42,7.94 2436.47,1135.62,7.94" />
    </edge>
    <edge id=":B_22" function="internal">
        <lane id=":B_22_0" index="0" speed="9.26" length="14.34" shape="2432.70,1135.71,7.94 2432.42,1135.67,7.94 2428.67,1133.42,7.94 2426.42,1129.67,7.94 2425.67,1124.42,7.94" />
    </edge>
    <edge id=":B_23" function="internal">
        <lane id=":B_23_0" index="0" speed="3.65" length="3.23" shape="2436.47,1135.62,7.94 2436.07,1134.82,7.94 2436.47,1134.02,7.94 2437.67,1133.22,7.94" />
    </edge>
    <edge id=":B_10" function="internal">
        <lane id=":B_10_0" index="0" speed="6.51" length="9.03" shape="2432.07,1124.42,7.94 2432.42,1126.87,7.94 2433.47,1128.62,7.94 2435.22,1129.67,7.94 2437.67,1130.02,7.94" />
    </edge>
    <edge id=":B_11" function="internal">
        <lane id=":B_11_0" index="0" speed="20.12" length="20.80" shape="2432.07,1124.42,7.94 2432.07,1145.22,7.94" />
        <lane id=":B_11_1" index="1" speed="20.12" length="20.80" shape="2428.87,1124.42,7.94 2428.87,1145.22,7.94" />
    </edge>
    <edge id=":B_13" function="internal">
        <lane id=":B_13_0" index="0" speed="9.26" length="5.01" shape="2428.87,1124.42,7.94 2428.16,1129.38,7.90" />
    </edge>
    <edge id=":B_14" function="internal">
        <lane id=":B_14_0" index="0" speed="3.65" length="1.44" shape="2428.87,1124.42,7.94 2428.07,1125.62,7.94" />
    </edge>
    <edge id=":B_24" function="internal">
        <lane id=":B_24_0" index="0" speed="9.26" length="14.34" shape="2428.16,1129.38,7.90 2428.12,1129.67,7.89 2425.87,1133.42,7.86 2422.12,1135.67,7.82 2416.87,1136.42,7.78" />
    </edge>
    <edge id=":B_25" function="internal">
        <lane id=":B_25_0" index="0" speed="3.65" length="3.23" shape="2428.07,1125.62,7.94 2427.27,1126.02,7.94 2426.47,1125.62,7.94 2425.67,1124.42,7.94" />
    </edge>
    <edge id=":B_15" function="internal">
        <lane id=":B_15_0" index="0" speed="6.51" length="9.03" shape="2416.87,1130.02,7.78 2419.32,1129.67,7.82 2421.07,1128.62,7.86 2422.12,1126.87,7.89 2422.47,1124.42,7.94" />
    </edge>
    <edge id=":B_16" function="internal">
        <lane id=":B_16_0" index="0" speed="20.12" length="20.80" shape="2416.87,1130.02,7.78 2437.67,1130.02,7.94" />
        <lane id=":B_16_1" index="1" speed="20.12" length="20.80" shape="2416.87,1133.22,7.78 2437.67,1133.22,7.94" />
    </edge>
    <edge id=":B_18" function="internal">
        <lane id=":B_18_0" index="0" speed="9.26" length="5.01" shape="2416.87,1133.22,7.78 2421.83,1133.93,7.82" />
    </edge>
    <edge id=":B_19" function="internal">
        <lane id=":B_19_0" index="0" speed="3.65" length="1.44" shape="2416.87,1133.22,7.78 2418.07,1134.02,7.78" />
    </edge>
    <edge id=":B_26" function="internal">
        <lane id=":B_26_0" index="0" speed="9.26" length="14.34" shape="2421.83,1133.93,7.82 2422.12,1133.97,7.82 2425.87,1136.22,7.86 2428.12,1139.97,7.89 2428.87,1145.22,7.94" />
    </edge>
    <edge id=":B_27" function="internal">
        <lane id=":B_27_0" index="0" speed="3.65" length="3.23" shape="2418.07,1134.02,7.78 2418.47,1134.82,7.78 2418.07,1135.62,7.78 2416.87,1136.42,7.78" />
    </edge>
    <edge id=":BA_0" function="internal">
        <lane id=":BA_0_0" index="0" speed="3.65" length="4.67" shape="2428.87,2269.64,12.80 2428.07,2270.84,12.80 2427.27,2271.24,12.80 2426.47,2270.84,12.80 2425.67,2269.64,12.80" />
    </edge>
    <edge id=":BB_0" function="internal">
        <lane id=":BB_0_0" index="0" speed="3.65" length="4.67" shape="3562.08,1133.22,12.80 3563.28,1134.02,12.80 3563.68,1134.82,12.80 3563.28,1135.62,12.80 3562.08,1136.42,12.80" />
    </edge>
    <edge id=":BC_0" function="internal">
        <lane id=":BC_0_0" index="0" speed="3.65" length="4.67" shape="2425.67,0.00,12.80 2426.47,-1.20,12.80 2427.27,-1.60,12.80 2428.07,-1.20,12.80 2428.87,0.00,12.80" />
    </edge>
    <edge id=":C_0" function="internal">
        <lane id=":C_0_0" index="0" speed="6.51" length="9.03" shape="1725.67,598.36,-1.96 1725.32,595.91,-1.97 1724.27,594.16,-1.98 1722.52,593.11,-1.98 1720.07,592.76,-1.99" />
    </edge>
    <edge id=":C_1" function="internal">
        <lane id=":C_1_0" index="0" speed="17.88" length="14.40" shape="1725.67,598.36,-1.96 1725.67,583.96,-1.99" />
    </edge>
    <edge id=":C_2" function="internal">
        <lane id=":C_2_0" index="0" speed="8.00" length="4.07" shape="1725.67,598.36,-1.96 1726.22,594.51,-1.97 1726.31,594.36,-1.97" />
    </edge>
    <edge id=":C_3" function="internal">
        <lane id=":C_3_0" index="0" speed="3.65" length="1.44" shape="1725.67,598.36,-1.96 1726.47,597.16,-1.96" />
    </edge>
    <edge id=":C_16" function="internal">
        <lane id=":C_16_0" index="0" speed="8.00" length="10.13" shape="1726.31,594.36,-1.97 1727.87,591.76,-1.98 1730.62,590.11,-1.98 1734.47,589.56,-1.99" />
    </edge>
    <edge id=":C_17" function="internal">
        <lane id=":C_17_0" index="0" speed="3.65" length="3.23" shape="1726.47,597.16,-1.96 1727.27,596.76,-1.96 1728.07,597.16,-1.96 1728.87,598.36,-1.96" />
    </edge>
    <edge id=":C_4" function="internal">
        <lane id=":C_4_0" index="0" speed="6.51" length="9.03" shape="1734.47,592.76,-1.99 1732.02,593.11,-1.98 1730.27,594.16,-1.98 1729.22,595.91,-1.97 1728.87,598.36,-1.96" />
    </edge>
    <edge id=":C_5" function="internal">
        <lane id=":C_5_0" index="0" speed="17.88" length="14.40" shape="1734.47,592.76,-1.99 1720.07,592.76,-1.99" />
    </edge>
    <edge id=":C_6" function="internal">
        <lane id=":C_6_0" index="0" speed="8.00" length="4.07" shape="1734.47,592.76,-1.99 1730.62,592.21,-1.99 1730.46,592.12,-1.99" />
    </edge>
    <edge id=":C_7" function="internal">
        <lane id=":C_7_0" index="0" speed="3.65" length="1.44" shape="1734.47,592.76,-1.99 1733.27,591.96,-1.99" />
    </edge>
    <edge id=":C_18" function="internal">
        <lane id=":C_18_0" index="0" speed="8.00" length="10.13" shape="1730.46,592.12,-1.99 1727.87,590.56,-1.99 1726.22,587.81,-1.99 1725.67,583.96,-1.99" />
    </edge>
    <edge id=":C_19" function="internal">
        <lane id=":C_19_0" index="0" speed="3.65" length="3.23" shape="1733.27,591.96,-1.99 1732.87,591.16,-1.99 1733.27,590.36,-1.99 1734.47,589.56,-1.99" />
    </edge>
    <edge id=":C_8" function="internal">
        <lane id=":C_8_0" index="0" speed="6.51" length="9.03" shape="1728.87,583.96,-1.99 1729.22,586.41,-1.99 1730.27,588.16,-1.99 1732.02,589.21,-1.99 1734.47,589.56,-1.99" />
    </edge>
    <edge id=":C_9" function="internal">
        <lane id=":C_9_0" index="0" speed="17.88" length="14.40" shape="1728.87,583.96,-1.99 1728.87,598.36,-1.96" />
    </edge>
    <edge id=":C_10" function="internal">
        <lane id=":C_10_0" index="0" speed="8.00" length="4.07" shape="1728.87,583.96,-1.99 1728.32,587.81,-1.99 1728.23,587.97,-1.99" />
    </edge>
    <edge id=":C_11" function="internal">
        <lane id=":C_11_0" index="0" speed="3.65" length="1.44" shape="1728.87,583.96,-1.99 1728.07,585.16,-1.99" />
    </edge>
    <edge id=":C_20" function="internal">
        <lane id=":C_20_0" index="0" speed="8.00" length="10.13" shape="1728.23,587.97,-1.99 1726.67,590.56,-1.99 1723.92,592.21,-1.99 1720.07,592.76,-1.99" />
    </edge>
    <edge id=":C_21" function="internal">
        <lane id=":C_21_0" index="0" speed="3.65" length="3.23" shape="1728.07,585.16,-1.99 1727.27,585.56,-1.99 1726.47,585.16,-1.99 1725.67,583.96,-1.99" />
    </edge>
    <edge id=":C_12" function="internal">
        <lane id=":C_12_0" index="0" speed="6.51" length="9.03" shape="1720.07,589.56,-1.99 1722.52,589.21,-1.99 1724.27,588.16,-1.99 1725.32,586.41,-1.99 1725.67,583.96,-1.99" />
    </edge>
    <edge id=":C_13" function="internal">
        <lane id=":C_13_0" index="0" speed="17.88" length="14.40" shape="1720.07,589.56,-1.99 1734.47,589.56,-1.99" />
    </edge>
    <edge id=":C_14" function="internal">
        <lane id=":C_14_0" index="0" speed="8.00" length="4.07" shape="1720.07,589.56,-1.99 1723.92,590.11,-1.98 1724.07,590.21,-1.98" />
    </edge>
    <edge id=":C_15" function="internal">
        <lane id=":C_15_0" index="0" speed="3.65" length="1.44" shape="1720.07,589.56,-1.99 1721.27,590.36,-1.99" />
    </edge>
    <edge id=":C_22" function="internal">
        <lane id=":C_22_0" index="0" speed="8.00" length="10.13" shape="1724.07,590.21,-1.98 1726.67,591.76,-1.98 1728.32,594.51,-1.97 1728.87,598.36,-1.96" />
    </edge>
    <edge id=":C_23" function="internal">
        <lane id=":C_23_0" index="0" speed="3.65" length="3.23" shape="1721.27,590.36,-1.99 1721.67,591.16,-1.99 1721.27,591.96,-1.99 1720.07,592.76,-1.99" />
    </edge>
    <edge id=":CA_0" function="internal">
        <lane id=":CA_0_0" index="0" speed="3.65" length="4.67" shape="2270.92,589.56,-1.99 2272.12,590.36,-1.99 2272.52,591.16,-1.99 2272.12,591.96,-1.99 2270.92,592.76,-1.99" />
    </edge>
    <edge id=":CB_0" function="internal">
        <lane id=":CB_0_0" index="0" speed="3.65" length="4.67" shape="1725.67,47.51,-1.99 1726.47,46.31,-1.99 1727.27,45.91,-1.99 1728.07,46.31,-1.99 1728.87,47.51,-1.99" />
    </edge>
    <edge id=":CC_0" function="internal">
        <lane id=":CC_0_0" index="0" speed="3.65" length="4.67" shape="1183.61,592.76,-1.99 1182.41,591.96,-1.99 1182.01,591.16,-1.99 1182.41,590.36,-1.99 1183.61,589.56,-1.99" />
    </edge>
    <edge id=":D_0" function="internal">
        <lane id=":D_0_0" index="0" speed="7.33" length="11.73" shape="1022.47,1148.42,-0.21 1021.92,1145.97,-0.21 1020.27,1144.22,-0.21 1017.52,1143.17,-0.21 1013.67,1142.82,-0.21" />
    </edge>
    <edge id=":D_1" function="internal">
        <lane id=":D_1_0" index="0" speed="22.35" length="24.00" shape="1022.47,1148.42,-0.21 1022.47,1124.42,-0.21" />
        <lane id=":D_1_1" index="1" speed="22.35" length="24.00" shape="1025.67,1148.42,-0.21 1025.67,1124.42,-0.21" />
    </edge>
    <edge id=":D_3" function="internal">
        <lane id=":D_3_0" index="0" speed="10.36" length="5.01" shape="1025.67,1148.42,-0.21 1026.38,1143.45,-0.21" />
    </edge>
    <edge id=":D_4" function="internal">
        <lane id=":D_4_0" index="0" speed="3.65" length="1.44" shape="1025.67,1148.42,-0.21 1026.47,1147.22,-0.21" />
    </edge>
    <edge id=":D_21" function="internal">
        <lane id=":D_21_0" index="0" speed="10.36" length="19.50" shape="1026.38,1143.45,-0.21 1026.62,1141.77,-0.21 1029.47,1137.02,-0.21 1034.22,1134.17,-0.21 1040.87,1133.22,-0.21" />
    </edge>
    <edge id=":D_22" function="internal">
        <lane id=":D_22_0" index="0" speed="3.65" length="3.23" shape="1026.47,1147.22,-0.21 1027.27,1146.82,-0.21 1028.07,1147.22,-0.21 1028.87,1148.42,-0.21" />
    </edge>
    <edge id=":D_5" function="internal">
        <lane id=":D_5_0" index="0" speed="6.51" length="9.03" shape="1040.87,1142.82,-0.21 1038.42,1143.17,-0.21 1036.67,1144.22,-0.21 1035.62,1145.97,-0.21 1035.27,1148.42,-0.21" />
    </edge>
    <edge id=":D_6" function="internal">
        <lane id=":D_6_0" index="0" speed="22.35" length="27.20" shape="1040.87,1142.82,-0.21 1013.67,1142.82,-0.21" />
        <lane id=":D_6_1" index="1" speed="22.35" length="27.20" shape="1040.87,1139.62,-0.21 1013.67,1139.62,-0.21" />
        <lane id=":D_6_2" index="2" speed="22.35" length="27.20" shape="1040.87,1136.42,-0.21 1013.67,1136.42,-0.21" />
    </edge>
    <edge id=":D_9" function="internal">
        <lane id=":D_9_0" index="0" speed="9.84" length="6.30" shape="1040.87,1136.42,-0.21 1034.61,1135.71,-0.21" />
    </edge>
    <edge id=":D_10" function="internal">
        <lane id=":D_10_0" index="0" speed="3.65" length="1.44" shape="1040.87,1136.42,-0.21 1039.67,1135.62,-0.21" />
    </edge>
    <edge id=":D_23" function="internal">
        <lane id=":D_23_0" index="0" speed="9.84" length="15.70" shape="1034.61,1135.71,-0.21 1034.22,1135.67,-0.21 1029.47,1133.42,-0.21 1026.62,1129.67,-0.21 1025.67,1124.42,-0.21" />
    </edge>
    <edge id=":D_24" function="internal">
        <lane id=":D_24_0" index="0" speed="3.65" length="3.23" shape="1039.67,1135.62,-0.21 1039.27,1134.82,-0.21 1039.67,1134.02,-0.21 1040.87,1133.22,-0.21" />
    </edge>
    <edge id=":D_11" function="internal">
        <lane id=":D_11_0" index="0" speed="7.33" length="11.73" shape="1032.07,1124.42,-0.21 1032.62,1126.87,-0.21 1034.27,1128.62,-0.21 1037.02,1129.67,-0.21 1040.87,1130.02,-0.21" />
    </edge>
    <edge id=":D_12" function="internal">
        <lane id=":D_12_0" index="0" speed="22.35" length="24.00" shape="1032.07,1124.42,-0.21 1032.07,1148.42,-0.21" />
        <lane id=":D_12_1" index="1" speed="22.35" length="24.00" shape="1028.87,1124.42,-0.21 1028.87,1148.42,-0.21" />
    </edge>
    <edge id=":D_14" function="internal">
        <lane id=":D_14_0" index="0" speed="9.84" length="4.01" shape="1028.87,1124.42,-0.21 1028.15,1128.37,-0.21" />
    </edge>
    <edge id=":D_15" function="internal">
        <lane id=":D_15_0" index="0" speed="3.65" length="1.44" shape="1028.87,1124.42,-0.21 1028.07,1125.62,-0.21" />
    </edge>
    <edge id=":D_25" function="internal">
        <lane id=":D_25_0" index="0" speed="9.84" length="17.98" shape="1028.15,1128.37,-0.21 1027.92,1129.67,-0.21 1025.07,1133.42,-0.21 1020.32,1135.67,-0.21 1013.67,1136.42,-0.21" />
    </edge>
    <edge id=":D_26" function="internal">
        <lane id=":D_26_0" index="0" speed="3.65" length="3.23" shape="1028.07,1125.62,-0.21 1027.27,1126.02,-0.21 1026.47,1125.62,-0.21 1025.67,1124.42,-0.21" />
    </edge>
    <edge id=":D_16" function="internal">
        <lane id=":D_16_0" index="0" speed="6.51" length="9.03" shape="1013.67,1130.02,-0.21 1016.12,1129.67,-0.21 1017.87,1128.62,-0.21 1018.92,1126.87,-0.21 1019.27,1124.42,-0.21" />
    </edge>
    <edge id=":D_17" function="internal">
        <lane id=":D_17_0" index="0" speed="22.35" length="27.20" shape="1013.67,1130.02,-0.21 1040.87,1130.02,-0.21" />
        <lane id=":D_17_1" index="1" speed="22.35" length="27.20" shape="1013.67,1133.22,-0.21 1040.87,1133.22,-0.21" />
    </edge>
    <edge id=":D_19" function="internal">
        <lane id=":D_19_0" index="0" speed="10.36" length="5.01" shape="1013.67,1133.22,-0.21 1018.63,1133.93,-0.21" />
    </edge>
    <edge id=":D_20" function="internal">
        <lane id=":D_20_0" index="0" speed="3.65" length="1.44" shape="1013.67,1133.22,-0.21 1014.87,1134.02,-0.21" />
    </edge>
    <edge id=":D_27" function="internal">
        <lane id=":D_27_0" index="0" speed="10.36" length="19.50" shape="1018.63,1133.93,-0.21 1020.32,1134.17,-0.21 1025.07,1137.02,-0.21 1027.92,1141.77,-0.21 1028.87,1148.42,-0.21" />
    </edge>
    <edge id=":D_28" function="internal">
        <lane id=":D_28_0" index="0" speed="3.65" length="3.23" shape="1014.87,1134.02,-0.21 1015.27,1134.82,-0.21 1014.87,1135.62,-0.21 1013.67,1136.42,-0.21" />
    </edge>
    <edge id=":DA_0" function="internal">
        <lane id=":DA_0_0" index="0" speed="3.65" length="4.67" shape="1025.67,107.55,-0.31 1026.47,106.35,-0.31 1027.27,105.95,-0.31 1028.07,106.35,-0.31 1028.87,107.55,-0.31" />
    </edge>
    <edge id=":DB_0" function="internal">
        <lane id=":DB_0_0" index="0" speed="3.65" length="4.67" shape="-0.00,1136.42,-0.31 -1.20,1135.62,-0.31 -1.60,1134.82,-0.31 -1.20,1134.02,-0.31 0.00,1133.22,-0.31" />
    </edge>
    <edge id=":DC_0" function="internal">
        <lane id=":DC_0_0" index="0" speed="3.65" length="4.67" shape="1028.87,2162.08,-0.31 1028.07,2163.28,-0.31 1027.27,2163.68,-0.31 1026.47,2163.28,-0.31 1025.67,2162.08,-0.31" />
    </edge>
    <edge id=":TL_0" function="internal">
        <lane id=":TL_0_0" index="0" speed="6.51" length="9.03" shape="1725.67,1148.42,-0.03 1725.32,1145.97,-0.02 1724.27,1144.22,-0.02 1722.52,1143.17,-0.01 1720.07,1142.82,-0.00" />
    </edge>
    <edge id=":TL_1" function="internal">
        <lane id=":TL_1_0" index="0" speed="17.88" length="24.00" shape="1725.67,1148.42,-0.03 1725.67,1124.42,-0.04" />
    </edge>
    <edge id=":TL_2" function="internal">
        <lane id=":TL_2_0" index="0" speed="7.33" length="11.73" shape="1737.67,1139.62,0.12 1735.22,1140.17,0.09 1733.47,1141.82,0.05 1732.42,1144.57,0.02 1732.07,1148.42,-0.03" />
    </edge>
    <edge id=":TL_3" function="internal">
        <lane id=":TL_3_0" index="0" speed="21.23" length="17.98" shape="1737.67,1139.62,0.12 1732.40,1140.12,0.08 1728.87,1141.22,0.06 1725.33,1142.32,0.03 1720.07,1142.82,-0.00" />
        <lane id=":TL_3_1" index="1" speed="21.23" length="17.98" shape="1737.67,1136.42,0.12 1732.40,1136.92,0.08 1728.87,1138.02,0.06 1725.33,1139.12,0.03 1720.07,1139.62,-0.00" />
    </edge>
    <edge id=":TL_5" function="internal">
        <lane id=":TL_5_0" index="0" speed="9.26" length="5.01" shape="1737.67,1136.42,0.12 1732.70,1135.71,0.08" />
    </edge>
    <edge id=":TL_12" function="internal">
        <lane id=":TL_12_0" index="0" speed="9.26" length="14.34" shape="1732.70,1135.71,0.08 1732.42,1135.67,0.07 1728.67,1133.42,0.04 1726.42,1129.67,0.00 1725.67,1124.42,-0.04" />
    </edge>
    <edge id=":TL_6" function="internal">
        <lane id=":TL_6_0" index="0" speed="7.33" length="11.73" shape="1728.87,1124.42,-0.04 1729.42,1126.87,-0.00 1731.07,1128.62,0.03 1733.82,1129.67,0.07 1737.67,1130.02,0.12" />
    </edge>
    <edge id=":TL_7" function="internal">
        <lane id=":TL_7_0" index="0" speed="17.88" length="24.24" shape="1728.87,1124.42,-0.04 1729.37,1128.87,-0.04 1730.47,1134.54,-0.04 1731.57,1141.15,-0.03 1732.07,1148.42,-0.03" />
    </edge>
    <edge id=":TL_8" function="internal">
        <lane id=":TL_8_0" index="0" speed="6.51" length="9.03" shape="1720.07,1130.02,-0.00 1722.52,1129.67,-0.01 1724.27,1128.62,-0.02 1725.32,1126.87,-0.03 1725.67,1124.42,-0.04" />
    </edge>
    <edge id=":TL_9" function="internal">
        <lane id=":TL_9_0" index="0" speed="21.23" length="17.60" shape="1720.07,1130.02,-0.00 1737.67,1130.02,0.12" />
        <lane id=":TL_9_1" index="1" speed="21.23" length="17.60" shape="1720.07,1133.22,-0.00 1737.67,1133.22,0.12" />
    </edge>
    <edge id=":TL_11" function="internal">
        <lane id=":TL_11_0" index="0" speed="9.32" length="6.96" shape="1720.07,1133.22,-0.00 1723.92,1134.17,-0.01 1726.00,1136.33,-0.01" />
    </edge>
    <edge id=":TL_13" function="internal">
        <lane id=":TL_13_0" index="0" speed="9.32" length="12.66" shape="1726.00,1136.33,-0.01 1726.67,1137.02,-0.01 1728.32,1141.77,-0.02 1728.87,1148.42,-0.03" />
    </edge>

    <edge id="A2AA" from="A" to="AA" priority="-1">
        <lane id="A2AA_0" index="0" speed="17.88" length="287.82" shape="1720.07,1434.64,-0.72 1432.25,1434.64,-0.72" />
        <lane id="A2AA_1" index="1" speed="17.88" length="287.82" shape="1720.07,1431.44,-0.72 1432.25,1431.44,-0.72" />
    </edge>
    <edge id="A2AB" from="A" to="AB" priority="-1">
        <lane id="A2AB_0" index="0" speed="17.88" length="284.62" shape="1732.07,1440.24,-0.72 1732.07,1724.86,-0.72" />
        <lane id="A2AB_1" index="1" speed="17.88" length="284.62" shape="1728.87,1440.24,-0.72 1728.87,1724.86,-0.72" />
    </edge>
    <edge id="A2AC" from="A" to="AC" priority="-1">
        <lane id="A2AC_0" index="0" speed="17.88" length="284.62" shape="1737.67,1425.04,-0.72 2022.29,1425.04,-0.72" />
        <lane id="A2AC_1" index="1" speed="17.88" length="284.62" shape="1737.67,1428.24,-0.72 2022.29,1428.24,-0.72" />
    </edge>
    <edge id="A2TL" from="A" to="TL" priority="-1">
        <lane id="A2TL_0" index="0" speed="17.88" length="271.02" shape="1725.67,1419.44,-0.69 1725.67,1148.42,-0.03" />
    </edge>
    <edge id="AA2A" from="AA" to="A" priority="-1">
        <lane id="AA2A_0" index="0" speed="17.88" length="287.82" shape="1432.25,1428.24,-0.72 1720.07,1428.24,-0.72" />
    </edge>
    <edge id="AB2A" from="AB" to="A" priority="-1">
        <lane id="AB2A_0" index="0" speed="17.88" length="284.62" shape="1725.67,1724.86,-0.72 1725.67,1440.24,-0.72" />
    </edge>
    <edge id="AC2A" from="AC" to="A" priority="-1">
        <lane id="AC2A_0" index="0" speed="17.88" length="284.62" shape="2022.29,1431.44,-0.72 1737.67,1431.44,-0.72" />
    </edge>
    <edge id="B2BA" from="B" to="BA" priority="-1">
        <lane id="B2BA_0" index="0" speed="20.12" length="1124.43" shape="2432.07,1145.22,7.94 2432.07,2269.64,12.80" />
        <lane id="B2BA_1" index="1" speed="20.12" length="1124.43" shape="2428.87,1145.22,7.94 2428.87,2269.64,12.80" />
    </edge>
    <edge id="B2BB" from="B" to="BB" priority="-1">
        <lane id="B2BB_0" index="0" speed="20.12" length="1124.43" shape="2437.67,1130.02,7.94 3562.08,1130.02,12.80" />
        <lane id="B2BB_1" index="1" speed="20.12" length="1124.43" shape="2437.67,1133.22,7.94 3562.08,1133.22,12.80" />
    </edge>
    <edge id="B2BC" from="B" to="BC" priority="-1">
        <lane id="B2BC_0" index="0" speed="20.12" length="1124.43" shape="2422.47,1124.42,7.94 2422.47,0.00,12.80" />
        <lane id="B2BC_1" index="1" speed="20.12" length="1124.43" shape="2425.67,1124.42,7.94 2425.67,0.00,12.80" />
    </edge>
    <edge id="B2TL" from="B" to="TL" priority="-1">
        <lane id="B2TL_0" index="0" speed="20.12" length="679.24" shape="2416.87,1139.62,7.78 1737.67,1139.62,0.12" />
        <lane id="B2TL_1" index="1" speed="20.12" length="679.24" shape="2416.87,1136.42,7.78 1737.67,1136.42,0.12" />
    </edge>
    <edge id="BA2B" from="BA" to="B" priority="-1">
        <lane id="BA2B_0" index="0" speed="20.12" length="1124.43" shape="2422.47,2269.64,12.80 2422.47,1145.22,7.94" />
        <lane id="BA2B_1" index="1" speed="20.12" length="1124.43" shape="2425.67,2269.64,12.80 2425.67,1145.22,7.94" />
    </edge>
    <edge id="BB2B" from="BB" to="B" priority="-1">
        <lane id="BB2B_0" index="0" speed="20.12" length="1124.43" shape="3562.08,1139.62,12.80 2437.67,1139.62,7.94" />
        <lane id="BB2B_1" index="1" speed="20.12" length="1124.43" shape="3562.08,1136.42,12.80 2437.67,1136.42,7.94" />