<net xmlns:xsi="http://www.w3.org/2001/XMLSchema-instance" version="1.9" junctionCornerDetail="5" limitTurnSpeed="5.50" xsi:noNamespaceSchemaLocation="http://sumo.dlr.de/xsd/net_file.xsd">

    <location netOffset="638.51,592.67" convBoundary="0.00,0.00,1047.28,1213.39" origBoundary="-638.51,-592.67,408.77,620.72" projParameter="!" />

    <edge id=":A_0" function="internal">
        <lane id=":A_0_0" index="0" speed="6.51" length="9.03" shape="633.71,913.43,-4.07 633.36,910.98,-4.07 632.31,909.23,-4.07 630.56,908.18,-4.07 628.11,907.83,-4.07" />
    </edge>
    <edge id=":A_1" function="internal">
        <lane id=":A_1_0" index="0" speed="13.41" length="20.80" shape="633.71,913.43,-4.07 633.71,892.63,-3.93" />
        <lane id=":A_1_1" index="1" speed="13.41" length="20.80" shape="636.91,913.43,-4.07 636.91,892.63,-3.93" />
    </edge>
    <edge id=":A_3" function="internal">
        <lane id=":A_3_0" index="0" speed="9.26" length="5.01" shape="636.91,913.43,-4.07 637.62,908.47,-4.07" />
    </edge>
    <edge id=":A_4" function="internal">
        <lane id=":A_4_0" index="0" speed="3.65" length="1.44" shape="636.91,913.43,-4.07 637.71,912.23,-4.07" />
    </edge>
    <edge id=":A_20" function="internal">
        <lane id=":A_20_0" index="0" speed="9.26" length="14.34" shape="637.62,908.47,-4.07 637.66,908.18,-4.07 639.91,904.43,-4.07 643.66,902.18,-4.07 648.91,901.43,-4.07" />
    </edge>
    <edge id=":A_21" function="internal">
        <lane id=":A_21_0" index="0" speed="3.65" length="3.23" shape="637.71,912.23,-4.07 638.51,911.83,-4.07 639.31,912.23,-4.07 640.11,913.43,-4.07" />
    </edge>
    <edge id=":A_5" function="internal">
        <lane id=":A_5_0" index="0" speed="6.51" length="9.03" shape="648.91,907.83,-4.07 646.46,908.18,-4.07 644.71,909.23,-4.07 643.66,910.98,-4.07 643.31,913.43,-4.07" />
    </edge>
    <edge id=":A_6" function="internal">
        <lane id=":A_6_0" index="0" speed="13.41" length="20.80" shape="648.91,907.83,-4.07 628.11,907.83,-4.07" />
        <lane id=":A_6_1" index="1" speed="13.41" length="20.80" shape="648.91,904.63,-4.07 628.11,904.63,-4.07" />
    </edge>
    <edge id=":A_8" function="internal">
        <lane id=":A_8_0" index="0" speed="9.26" length="5.01" shape="648.91,904.63,-4.07 643.95,903.92,-4.03" />
    </edge>
    <edge id=":A_9" function="internal">
        <lane id=":A_9_0" index="0" speed="3.65" length="1.44" shape="648.91,904.63,-4.07 647.71,903.83,-4.07" />
    </edge>
    <edge id=":A_22" function="internal">
        <lane id=":A_22_0" index="0" speed="9.26" length="14.34" shape="643.95,903.92,-4.03 643.66,903.88,-4.03 639.91,901.63,-4.00 637.66,897.88,-3.97 636.91,892.63,-3.93" />
    </edge>
    <edge id=":A_23" function="internal">
        <lane id=":A_23_0" index="0" speed="3.65" length="3.23" shape="647.71,903.83,-4.07 647.31,903.03,-4.07 647.71,902.23,-4.07 648.91,901.43,-4.07" />
    </edge>
    <edge id=":A_10" function="internal">
        <lane id=":A_10_0" index="0" speed="6.51" length="9.03" shape="643.31,892.63,-3.93 643.66,895.08,-3.97 644.71,896.83,-4.00 646.46,897.88,-4.03 648.91,898.23,-4.07" />
    </edge>
    <edge id=":A_11" function="internal">
        <lane id=":A_11_0" index="0" speed="13.41" length="20.80" shape="643.31,892.63,-3.93 643.31,913.43,-4.07" />
        <lane id=":A_11_1" index="1" speed="13.41" length="20.80" shape="640.11,892.63,-3.93 640.11,913.43,-4.07" />
    </edge>
    <edge id=":A_13" function="internal">
        <lane id=":A_13_0" index="0" speed="9.26" length="5.01" shape="640.11,892.63,-3.93 639.40,897.59,-3.97" />
    </edge>
    <edge id=":A_14" function="internal">
        <lane id=":A_14_0" index="0" speed="3.65" length="1.44" shape="640.11,892.63,-3.93 639.31,893.83,-3.93" />
    </edge>
    <edge id=":A_24" function="internal">
        <lane id=":A_24_0" index="0" speed="9.26" length="14.34" shape="639.40,897.59,-3.97 639.36,897.88,-3.97 637.11,901.63,-4.00 633.36,903.88,-4.03 628.11,904.63,-4.07" />
    </edge>
    <edge id=":A_25" function="internal">
        <lane id=":A_25_0" index="0" speed="3.65" length="3.23" shape="639.31,893.83,-3.93 638.51,894.23,-3.93 637.71,893.83,-3.93 636.91,892.63,-3.93" />
    </edge>
    <edge id=":A_15" function="internal">
        <lane id=":A_15_0" index="0" speed="6.51" length="9.03" shape="628.11,898.23,-4.07 630.56,897.88,-4.03 632.31,896.83,-4.00 633.36,895.08,-3.97 633.71,892.63,-3.93" />
    </edge>
    <edge id=":A_16" function="internal">
        <lane id=":A_16_0" index="0" speed="13.41" length="20.80" shape="628.11,898.23,-4.07 648.91,898.23,-4.07" />
        <lane id=":A_16_1" index="1" speed="13.41" length="20.80" shape="628.11,901.43,-4.07 648.91,901.43,-4.07" />
    </edge>
    <edge id=":A_18" function="internal">
        <lane id=":A_18_0" index="0" speed="9.26" length="5.01" shape="628.11,901.43,-4.07 633.08,902.14,-4.07" />
    </edge>
    <edge id=":A_19" function="internal">
        <lane id=":A_19_0" index="0" speed="3.65" length="1.44" shape="628.11,901.43,-4.07 629.31,902.23,-4.07" />
    </edge>
    <edge id=":A_26" function="internal">
        <lane id=":A_26_0" index="0" speed="9.26" length="14.34" shape="633.08,902.14,-4.07 633.36,902.18,-4.07 637.11,904.43,-4.07 639.36,908.18,-4.07 640.11,913.43,-4.07" />
    </edge>
    <edge id=":A_27" function="internal">
        <lane id=":A_27_0" index="0" speed="3.65" length="3.23" shape="629.31,902.23,-4.07 629.71,903.03,-4.07 629.31,903.83,-4.07 628.11,904.63,-4.07" />
    </edge>
    <edge id=":AA_0" function="internal">
        <lane id=":AA_0_0" index="0" speed="3.65" length="4.67" shape="328.15,904.63,-4.07 326.95,903.83,-4.07 326.55,903.03,-4.07 326.95,902.23,-4.07 328.15,901.43,-4.07" />
    </edge>
    <edge id=":AB_0" function="internal">
        <lane id=":AB_0_0" index="0" speed="3.65" length="4.67" shape="640.11,1213.39,-4.07 639.31,1214.59,-4.07 638.51,1214.99,-4.07 637.71,1214.59,-4.07 636.91,1213.39,-4.07" />
    </edge>
    <edge id=":AC_0" function="internal">
        <lane id=":AC_0_0" index="0" speed="3.65" length="4.67" shape="948.88,901.43,-4.07 950.08,902.23,-4.07 950.48,903.03,-4.07 950.08,903.83,-4.07 948.88,904.63,-4.07" />
    </edge>
    <edge id=":B_0" function="internal">
        <lane id=":B_0_0" index="0" speed="6.51" length="9.03" shape="841.30,599.87,-0.87 840.95,597.42,-0.86 839.90,595.67,-0.86 838.15,594.62,-0.85 835.70,594.27,-0.84" />
    </edge>
    <edge id=":B_1" function="internal">
        <lane id=":B_1_0" index="0" speed="11.18" length="14.40" shape="841.30,599.87,-0.87 841.30,585.47,-0.87" />
    </edge>
    <edge id=":B_2" function="internal">
        <lane id=":B_2_0" index="0" speed="8.00" length="4.07" shape="841.30,599.87,-0.87 841.85,596.02,-0.87 841.94,595.87,-0.87" />
    </edge>
    <edge id=":B_3" function="internal">
        <lane id=":B_3_0" index="0" speed="3.65" length="1.44" shape="841.30,599.87,-0.87 842.10,598.67,-0.87" />
    </edge>
    <edge id=":B_16" function="internal">
        <lane id=":B_16_0" index="0" speed="8.00" length="10.13" shape="841.94,595.87,-0.87 843.50,593.27,-0.87 846.25,591.62,-0.87 850.10,591.07,-0.87" />
    </edge>
    <edge id=":B_17" function="internal">
        <lane id=":B_17_0" index="0" speed="3.65" length="3.23" shape="842.10,598.67,-0.87 842.90,598.27,-0.87 843.70,598.67,-0.87 844.50,599.87,-0.87" />
    </edge>
    <edge id=":B_4" function="internal">
        <lane id=":B_4_0" index="0" speed="6.51" length="9.03" shape="850.10,594.27,-0.87 847.65,594.62,-0.87 845.90,595.67,-0.87 844.85,597.42,-0.87 844.50,599.87,-0.87" />
    </edge>
    <edge id=":B_5" function="internal">
        <lane id=":B_5_0" index="0" speed="11.18" length="14.40" shape="850.10,594.27,-0.87 835.70,594.27,-0.84" />
    </edge>
    <edge id=":B_6" function="internal">
        <lane id=":B_6_0" index="0" speed="8.00" length="4.07" shape="850.10,594.27,-0.87 846.25,593.72,-0.87 846.09,593.63,-0.87" />
    </edge>
    <edge id=":B_7" function="internal">
        <lane id=":B_7_0" index="0" speed="3.65" length="1.44" shape="850.10,594.27,-0.87 848.90,593.47,-0.87" />
    </edge>
    <edge id=":B_18" function="internal">
        <lane id=":B_18_0" index="0" speed="8.00" length="10.13" shape="846.09,593.63,-0.87 843.50,592.07,-0.87 841.85,589.32,-0.87 841.30,585.47,-0.87" />
    </edge>
    <edge id=":B_19" function="internal">
        <lane id=":B_19_0" index="0" speed="3.65" length="3.23" shape="848.90,593.47,-0.87 848.50,592.67,-0.87 848.90,591.87,-0.87 850.10,591.07,-0.87" />
    </edge>
    <edge id=":B_8" function="internal">
        <lane id=":B_8_0" index="0" speed="6.51" length="9.03" shape="844.50,585.47,-0.87 844.85,587.92,-0.87 845.90,589.67,-0.87 847.65,590.72,-0.87 850.10,591.07,-0.87" />
    </edge>
    <edge id=":B_9" function="internal">
        <lane id=":B_9_0" index="0" speed="11.18" length="14.40" shape="844.50,585.47,-0.87 844.50,599.87,-0.87" />
    </edge>
    <edge id=":B_10" function="internal">
        <lane id=":B_10_0" index="0" speed="8.00" length="4.07" shape="844.50,585.47,-0.87 843.95,589.32,-0.86 843.86,589.47,-0.86" />
    </edge>
    <edge id=":B_11" function="internal">
        <lane id=":B_11_0" index="0" speed="3.65" length="1.44" shape="844.50,585.47,-0.87 843.70,586.67,-0.87" />
    </edge>
    <edge id=":B_20" function="internal">
        <lane id=":B_20_0" index="0" speed="8.00" length="10.13" shape="843.86,589.47,-0.86 842.30,592.07,-0.86 839.55,593.72,-0.85 835.70,594.27,-0.84" />
    </edge>
    <edge id=":B_21" function="internal">
        <lane id=":B_21_0" index="0" speed="3.65" length="3.23" shape="843.70,586.67,-0.87 842.90,587.07,-0.87 842.10,586.67,-0.87 841.30,585.47,-0.87" />
    </edge>
    <edge id=":B_12" function="internal">
        <lane id=":B_12_0" index="0" speed="6.51" length="9.03" shape="835.70,591.07,-0.84 838.15,590.72,-0.85 839.90,589.67,-0.86 840.95,587.92,-0.86 841.30,585.47,-0.87" />
    </edge>
    <edge id=":B_13" function="internal">
        <lane id=":B_13_0" index="0" speed="11.18" length="14.40" shape="835.70,591.07,-0.84 850.10,591.07,-0.87" />
    </edge>
    <edge id=":B_14" function="internal">
        <lane id=":B_14_0" index="0" speed="8.00" length="4.07" shape="835.70,591.07,-0.84 839.55,591.62,-0.85 839.70,591.71,-0.85" />
    </edge>
    <edge id=":B_15" function="internal">
        <lane id=":B_15_0" index="0" speed="3.65" length="1.44" shape="835.70,591.07,-0.84 836.90,591.87,-0.84" />
    </edge>
    <edge id=":B_22" function="internal">
        <lane id=":B_22_0" index="0" speed="8.00" length="10.13" shape="839.70,591.71,-0.85 842.30,593.27,-0.86 843.95,596.02,-0.86 844.50,599.87,-0.87" />
    </edge>
    <edge id=":B_23" function="internal">
        <lane id=":B_23_0" index="0" speed="3.65" length="3.23" shape="836.90,591.87,-0.84 837.30,592.67,-0.84 836.90,593.47,-0.84 835.70,594.27,-0.84" />
    </edge>
    <edge id=":BA_0" function="internal">
        <lane id=":BA_0_0" index="0" speed="3.65" length="4.67" shape="844.50,797.05,-0.87 843.70,798.25,-0.87 842.90,798.65,-0.87 842.10,798.25,-0.87 841.30,797.05,-0.87" />
    </edge>
    <edge id=":BB_0" function="internal">
        <lane id=":BB_0_0" index="0" speed="3.65" length="4.67" shape="1047.28,591.07,-0.87 1048.48,591.87,-0.87 1048.88,592.67,-0.87 1048.48,593.47,-0.87 1047.28,594.27,-0.87" />
    </edge>
    <edge id=":BC_0" function="internal">
        <lane id=":BC_0_0" index="0" speed="3.65" length="4.67" shape="841.30,388.29,-0.87 842.10,387.09,-0.87 842.90,386.69,-0.87 843.70,387.09,-0.87 844.50,388.29,-0.87" />
    </edge>
    <edge id=":C_0" function="internal">
        <lane id=":C_0_0" index="0" speed="6.51" length="9.03" shape="633.71,306.73,-3.75 633.36,304.28,-3.78 632.31,302.53,-3.82 630.56,301.48,-3.85 628.11,301.13,-3.88" />
    </edge>
    <edge id=":C_1" function="internal">
        <lane id=":C_1_0" index="0" speed="13.41" length="20.80" shape="633.71,306.73,-3.75 633.71,285.93,-3.88" />
        <lane id=":C_1_1" index="1" speed="13.41" length="20.80" shape="636.91,306.73,-3.75 636.91,285.93,-3.88" />
    </edge>
    <edge id=":C_3" function="internal">
        <lane id=":C_3_0" index="0" speed="9.26" length="5.01" shape="636.91,306.73,-3.75 637.62,301.77,-3.78" />
    </edge>
    <edge id=":C_4" function="internal">
        <lane id=":C_4_0" index="0" speed="3.65" length="1.44" shape="636.91,306.73,-3.75 637.71,305.53,-3.75" />
    </edge>
    <edge id=":C_20" function="internal">
        <lane id=":C_20_0" index="0" speed="9.26" length="14.34" shape="637.62,301.77,-3.78 637.66,301.48,-3.78 639.91,297.73,-3.82 643.66,295.48,-3.85 648.91,294.73,-3.88" />
    </edge>
    <edge id=":C_21" function="internal">
        <lane id=":C_21_0" index="0" speed="3.65" length="3.23" shape="637.71,305.53,-3.75 638.51,305.13,-3.75 639.31,305.53,-3.75 640.11,306.73,-3.75" />
    </edge>
    <edge id=":C_5" function="internal">
        <lane id=":C_5_0" index="0" speed="6.51" length="9.03" shape="648.91,301.13,-3.88 646.46,301.48,-3.85 644.71,302.53,-3.82 643.66,304.28,-3.78 643.31,306.73,-3.75" />
    </edge>
    <edge id=":C_6" function="internal">
        <lane id=":C_6_0" index="0" speed="13.41" length="20.80" shape="648.91,301.13,-3.88 628.11,301.13,-3.88" />
        <lane id=":C_6_1" index="1" speed="13.41" length="20.80" shape="648.91,297.93,-3.88 628.11,297.93,-3.88" />
    </edge>
    <edge id=":C_8" function="internal">
        <lane id=":C_8_0" index="0" speed="9.26" length="5.01" shape="648.91,297.93,-3.88 643.95,297.23,-3.88" />
    </edge>
    <edge id=":C_9" function="internal">
        <lane id=":C_9_0" index="0" speed="3.65" length="1.44" shape="648.91,297.93,-3.88 647.71,297.13,-3.88" />
    </edge>
    <edge id=":C_22" function="internal">
        <lane id=":C_22_0" index="0" speed="9.26" length="14.34" shape="643.95,297.23,-3.88 643.66,297.18,-3.88 639.91,294.93,-3.88 637.66,291.18,-3.88 636.91,285.93,-3.88" />
    </edge>
    <edge id=":C_23" function="internal">
        <lane id=":C_23_0" index="0" speed="3.65" length="3.23" shape="647.71,297.13,-3.88 647.31,296.33,-3.88 647.71,295.53,-3.88 648.91,294.73,-3.88" />
    </edge>
    <edge id=":C_10" function="internal">
        <lane id=":C_10_0" index="0" speed="6.51" length="9.03" shape="643.31,285.93,-3.88 643.66,288.38,-3.88 644.71,290.13,-3.88 646.46,291.18,-3.88 648.91,291.53,-3.88" />
    </edge>
    <edge id=":C_11" function="internal">
        <lane id=":C_11_0" index="0" speed="13.41" length="20.80" shape="643.31,285.93,-3.88 643.31,306.73,-3.75" />
        <lane id=":C_11_1" index="1" speed="13.41" length="20.80" shape="640.11,285.93,-3.88 640.11,306.73,-3.75" />
    </edge>
    <edge id=":C_13" function="internal">
        <lane id=":C_13_0" index="0" speed="9.26" length="5.01" shape="640.11,285.93,-3.88 639.40,290.90,-3.88" />
    </edge>
    <edge id=":C_14" function="internal">
        <lane id=":C_14_0" index="0" speed="3.65" length="1.44" shape="640.11,285.93,-3.88 639.31,287.13,-3.88" />
    </edge>
    <edge id=":C_24" function="internal">
        <lane id=":C_24_0" index="0" speed="9.26" length="14.34" shape="639.40,290.90,-3.88 639.36,291.18,-3.88 637.11,294.93,-3.88 633.36,297.18,-3.88 628.11,297.93,-3.88" />
    </edge>
    <edge id=":C_25" function="internal">
        <lane id=":C_25_0" index="0" speed="3.65" length="3.23" shape="639.31,287.13,-3.88 638.51,287.53,-3.88 637.71,287.13,-3.88 636.91,285.93,-3.88" />
    </edge>
    <edge id=":C_15" function="internal">
        <lane id=":C_15_0" index="0" speed="6.51" length="9.03" shape="628.11,291.53,-3.88 630.56,291.18,-3.88 632.31,290.13,-3.88 633.36,288.38,-3.88 633.71,285.93,-3.88" />
    </edge>
    <edge id=":C_16" function="internal">
        <lane id=":C_16_0" index="0" speed="13.41" length="20.80" shape="628.11,291.53,-3.88 648.91,291.53,-3.88" />
        <lane id=":C_16_1" index="1" speed="13.41" length="20.80" shape="628.11,294.73,-3.88 648.91,294.73,-3.88" />
    </edge>
    <edge id=":C_18" function="internal">
        <lane id=":C_18_0" index="0" speed="9.26" length="5.01" shape="628.11,294.73,-3.88 633.08,295.44,-3.85" />
    </edge>
    <edge id=":C_19" function="internal">
        <lane id=":C_19_0" index="0" speed="3.65" length="1.44" shape="628.11,294.73,-3.88 629.31,295.53,-3.88" />
    </edge>
    <edge id=":C_26" function="internal">
        <lane id=":C_26_0" index="0" speed="9.26" length="14.34" shape="633.08,295.44,-3.85 633.36,295.48,-3.85 637.11,297.73,-3.82 639.36,301.48,-3.78 640.11,306.73,-3.75" />
    </edge>
    <edge id=":C_27" function="internal">
        <lane id=":C_27_0" index="0" speed="3.65" length="3.23" shape="629.31,295.53,-3.88 629.71,296.33,-3.88 629.31,297.13,-3.88 628.11,297.93,-3.88" />
    </edge>
    <edge id=":CA_0" function="internal">
        <lane id=":CA_0_0" index="0" speed="3.65" length="4.67" shape="934.85,294.73,-3.88 936.05,295.53,-3.88 936.45,296.33,-3.88 936.05,297.13,-3.88 934.85,297.93,-3.88" />
    </edge>
    <edge id=":CB_0" function="internal">
        <lane id=":CB_0_0" index="0" speed="3.65" length="4.67" shape="636.91,-0.00,-3.88 637.71,-1.20,-3.88 638.51,-1.60,-3.88 639.31,-1.20,-3.88 640.11,-0.00,-3.88" />
    </edge>
    <edge id=":CC_0" function="internal">
        <lane id=":CC_0_0" index="0" speed="3.65" length="4.67" shape="342.18,297.93,-3.88 340.98,297.13,-3.88 340.58,296.33,-3.88 340.98,295.53,-3.88 342.18,294.73,-3.88" />
    </edge>
    <edge id=":D_0" function="internal">
        <lane id=":D_0_0" index="0" speed="6.51" length="9.03" shape="317.66,599.87,-1.36 317.31,597.42,-1.36 316.26,595.67,-1.36 314.51,594.62,-1.36 312.06,594.27,-1.36" />
    </edge>
    <edge id=":D_1" function="internal">
        <lane id=":D_1_0" index="0" speed="11.18" length="14.40" shape="317.66,599.87,-1.36 317.66,585.47,-1.36" />
    </edge>
    <edge id=":D_2" function="internal">
        <lane id=":D_2_0" index="0" speed="8.00" length="4.07" shape="317.66,599.87,-1.36 318.21,596.02,-1.35 318.30,595.87,-1.35" />
    </edge>
    <edge id=":D_3" function="internal">
        <lane id=":D_3_0" index="0" speed="3.65" length="1.44" shape="317.66,599.87,-1.36 318.46,598.67,-1.36" />
    </edge>
    <edge id=":D_16" function="internal">
        <lane id=":D_16_0" index="0" speed="8.00" length="10.13" shape="318.30,595.87,-1.35 319.86,593.27,-1.35 322.61,591.62,-1.34 326.46,591.07,-1.33" />
    </edge>
    <edge id=":D_17" function="internal">
        <lane id=":D_17_0" index="0" speed="3.65" length="3.23" shape="318.46,598.67,-1.36 319.26,598.27,-1.36 320.06,598.67,-1.36 320.86,599.87,-1.36" />
    </edge>
    <edge id=":D_4" function="internal">
        <lane id=":D_4_0" index="0" speed="6.51" length="9.03" shape="326.46,594.27,-1.33 324.01,594.62,-1.34 322.26,595.67,-1.35 321.21,597.42,-1.35 320.86,599.87,-1.36" />
    </edge>
    <edge id=":D_5" function="internal">
        <lane id=":D_5_0" index="0" speed="11.18" length="14.40" shape="326.46,594.27,-1.33 312.06,594.27,-1.36" />
    </edge>
    <edge id=":D_6" function="internal">
        <lane id=":D_6_0" index="0" speed="8.00" length="4.07" shape="326.46,594.27,-1.33 322.61,593.72,-1.34 322.45,593.63,-1.34" />
    </edge>
    <edge id=":D_7" function="internal">
        <lane id=":D_7_0" index="0" speed="3.65" length="1.44" shape="326.46,594.27,-1.33 325.26,593.47,-1.33" />
    </edge>
    <edge id=":D_18" function="internal">
        <lane id=":D_18_0" index="0" speed="8.00" length="10.13" shape="322.45,593.63,-1.34 319.86,592.07,-1.35 318.21,589.32,-1.35 317.66,585.47,-1.36" />
    </edge>
    <edge id=":D_19" function="internal">
        <lane id=":D_19_0" index="0" speed="3.65" length="3.23" shape="325.26,593.47,-1.33 324.86,592.67,-1.33 325.26,591.87,-1.33 326.46,591.07,-1.33" />
    </edge>
    <edge id=":D_8" function="internal">
        <lane id=":D_8_0" index="0" speed="6.51" length="9.03" shape="320.86,585.47,-1.36 321.21,587.92,-1.35 322.26,589.67,-1.35 324.01,590.72,-1.34 326.46,591.07,-1.33" />
    </edge>
    <edge id=":D_9" function="internal">
        <lane id=":D_9_0" index="0" speed="11.18" length="14.40" shape="320.86,585.47,-1.36 320.86,599.87,-1.36" />
    </edge>
    <edge id=":D_10" function="internal">
        <lane id=":D_10_0" index="0" speed="8.00" length="4.07" shape="320.86,585.47,-1.36 320.31,589.32,-1.36 320.22,589.47,-1.36" />
    </edge>
    <edge id=":D_11" function="internal">
        <lane id=":D_11_0" index="0" speed="3.65" length="1.44" shape="320.86,585.47,-1.36 320.06,586.67,-1.36" />
    </edge>
    <edge id=":D_20" function="internal">
        <lane id=":D_20_0" index="0" speed="8.00" length="10.13" shape="320.22,589.47,-1.36 318.66,592.07,-1.36 315.91,593.72,-1.36 312.06,594.27,-1.36" />
    </edge>
    <edge id=":D_21" function="internal">
        <lane id=":D_21_0" index="0" speed="3.65" length="3.23" shape="320.06,586.67,-1.36 319.26,587.07,-1.36 318.46,586.67,-1.36 317.66,585.47,-1.36" />
    </edge>
    <edge id=":D_12" function="internal">
        <lane id=":D_12_0" index="0" speed="6.51" length="9.03" shape="312.06,591.07,-1.36 314.51,590.72,-1.36 316.26,589.67,-1.36 317.31,587.92,-1.36 317.66,585.47,-1.36" />
    </edge>
    <edge id=":D_13" function="internal">
        <lane id=":D_13_0" index="0" speed="11.18" length="14.40" shape="312.06,591.07,-1.36 326.46,591.07,-1.33" />
    </edge>
    <edge id=":D_14" function="internal">
        <lane id=":D_14_0" index="0" speed="8.00" length="4.07" shape="312.06,591.07,-1.36 315.91,591.62,-1.36 316.06,591.71,-1.36" />
    </edge>
    <edge id=":D_15" function="internal">
        <lane id=":D_15_0" index="0" speed="3.65" length="1.44" shape="312.06,591.07,-1.36 313.26,591.87,-1.36" />
    </edge>
    <edge id=":D_22" function="internal">
        <lane id=":D_22_0" index="0" speed="8.00" length="10.13" shape="316.06,591.71,-1.36 318.66,593.27,-1.36 320.31,596.02,-1.36 320.86,599.87,-1.36" />
    </edge>
    <edge id=":D_23" function="internal">
        <lane id=":D_23_0" index="0" speed="3.65" length="3.23" shape="313.26,591.87,-1.36 313.66,592.67,-1.36 313.26,593.47,-1.36 312.06,594.27,-1.36" />
    </edge>
    <edge id=":DA_0" function="internal">
        <lane id=":DA_0_0" index="0" speed="3.65" length="4.67" shape="317.66,273.41,-1.36 318.46,272.21,-1.36 319.26,271.81,-1.36 320.06,272.21,-1.36 320.86,273.41,-1.36" />
    </edge>
    <edge id=":DB_0" function="internal">
        <lane id=":DB_0_0" index="0" speed="3.65" length="4.67" shape="-0.00,594.27,-1.36 -1.20,593.47,-1.36 -1.60,592.67,-1.36 -1.20,591.87,-1.36 0.00,591.07,-1.36" />
    </edge>
    <edge id=":DC_0" function="internal">
        <lane id=":DC_0_0" index="0" speed="3.65" length="4.67" shape="320.86,911.93,-1.36 320.06,913.13,-1.36 319.26,913.53,-1.36 318.46,913.13,-1.36 317.66,911.93,-1.36" />
    </edge>
    <edge id=":TL_0" function="internal">
        <lane id=":TL_0_0" index="0" speed="6.51" length="9.03" shape="633.71,599.87,-0.09 633.36,597.42,-0.08 632.31,595.67,-0.07 630.56,594.62,-0.06 628.11,594.27,-0.04" />
    </edge>
    <edge id=":TL_1" function="internal">
        <lane id=":TL_1_0" index="0" speed="13.41" length="14.40" shape="633.71,599.87,-0.09 633.71,585.47,-0.09" />
        <lane id=":TL_1_1" index="1" speed="13.41" length="14.40" shape="636.91,599.87,-0.09 636.91,585.47,-0.09" />
    </edge>
    <edge id=":TL_3" function="internal">
        <lane id=":TL_3_0" index="0" speed="8.67" length="3.71" shape="636.91,599.87,-0.09 637.62,596.23,-0.08" />
    </edge>
    <edge id=":TL_12" function="internal">
        <lane id=":TL_12_0" index="0" speed="8.67" length="13.14" shape="637.62,596.23,-0.08 637.66,596.02,-0.08 639.91,593.27,-0.07 643.66,591.62,-0.06 648.91,591.07,-0.04" />
    </edge>
    <edge id=":TL_4" function="internal">
        <lane id=":TL_4_0" index="0" speed="6.51" length="9.03" shape="648.91,594.27,-0.04 646.46,594.62,-0.06 644.71,595.67,-0.07 643.66,597.42,-0.08 643.31,599.87,-0.09" />
    </edge>
    <edge id=":TL_5" function="internal">
        <lane id=":TL_5_0" index="0" speed="11.18" length="20.80" shape="648.91,594.27,-0.04 628.11,594.27,-0.04" />
    </edge>
    <edge id=":TL_6" function="internal">
        <lane id=":TL_6_0" index="0" speed="6.51" length="9.03" shape="643.31,585.47,-0.09 643.66,587.92,-0.08 644.71,589.67,-0.07 646.46,590.72,-0.06 648.91,591.07,-0.04" />
    </edge>
    <edge id=":TL_7" function="internal">
        <lane id=":TL_7_0" index="0" speed="13.41" length="14.40" shape="643.31,585.47,-0.09 643.31,599.87,-0.09" />
        <lane id=":TL_7_1" index="1" speed="13.41" length="14.40" shape="640.11,585.47,-0.09 640.11,599.87,-0.09" />
    </edge>
    <edge id=":TL_9" function="internal">
        <lane id=":TL_9_0" index="0" speed="8.67" length="3.71" shape="640.11,585.47,-0.09 639.40,589.11,-0.08" />
    </edge>
    <edge id=":TL_13" function="internal">
        <lane id=":TL_13_0" index="0" speed="8.67" length="13.14" shape="639.40,589.11,-0.08 639.36,589.32,-0.08 637.11,592.07,-0.07 633.36,593.72,-0.06 628.11,594.27,-0.04" />
    </edge>
    <edge id=":TL_10" function="internal">
        <lane id=":TL_10_0" index="0" speed="6.51" length="9.03" shape="628.11,591.07,-0.04 630.56,590.72,-0.06 632.31,589.67,-0.07 633.36,587.92,-0.08 633.71,585.47,-0.09" />
    </edge>
    <edge id=":TL_11" function="internal">
        <lane id=":TL_11_0" index="0" speed="11.18" length="20.80" shape="628.11,591.07,-0.04 648.91,591.07,-0.04" />
    </edge>

    <edge id="A2AA" from="A" to="AA" priority="-1">
        <lane id="A2AA_0" index="0" speed="13.41" length="299.96" shape="628.11,907.83,-4.07 328.15,907.83,-4.07" />
        <lane id="A2AA_1" index="1" speed="13.41" length="299.96" shape="628.11,904.63,-4.07 328.15,904.63,-4.07" />
    </edge>
    <edge id="A2AB" from="A" to="AB" priority="-1">
        <lane id="A2AB_0" index="0" speed="13.41" length="299.96" shape="643.31,913.43,-4.07 643.31,1213.39,-4.07" />
        <lane id="A2AB_1" index="1" speed="13.41" length="299.96" shape="640.11,913.43,-4.07 640.11,1213.39,-4.07" />
    </edge>
    <edge id="A2AC" from="A" to="AC" priority="-1">
        <lane id="A2AC_0" index="0" speed="13.41" length="299.96" shape="648.91,898.23,-4.07 948.88,898.23,-4.07" />
        <lane id="A2AC_1" index="1" speed="13.41" length="299.96" shape="648.91,901.43,-4.07 948.88,901.43,-4.07" />
    </edge>
    <edge id="A2TL" from="A" to="TL" priority="-1">
        <lane id="A2TL_0" index="0" speed="13.41" length="292.79" shape="633.71,892.63,-3.93 633.71,599.87,-0.09" />
        <lane id="A2TL_1" index="1" speed="13.41" length="292.79" shape="636.91,892.63,-3.93 636.91,599.87,-0.09" />
    </edge>
    <edge id="AA2A" from="AA" to="A" priority="-1">
        <lane id="AA2A_0" index="0" speed="13.41" length="299.96" shape="328.15,898.23,-4.07 628.11,898.23,-4.07" />
        <lane id="AA2A_1" index="1" speed="13.41" length="299.96" shape="328.15,901.43,-4.07 628.11,901.43,-4.07" />
    </edge>
    <edge id="AB2A" from="AB" to="A" priority="-1">
        <lane id="AB2A_0" index="0" speed="13.41" length="299.96" shape="633.71,1213.39,-4.07 633.71,913.43,-4.07" />
        <lane id="AB2A_1" index="1" speed="13.41" length="299.96" shape="636.91,1213.39,-4.07 636.91,913.43,-4.07" />
    </edge>
    <edge id="AC2A" from="AC" to="A" priority="-1">
        <lane id="AC2A_0" index="0" speed="13.41" length="299.96" shape="948.88,907.83,-4.07 648.91,907.83,-4.07" />
        <lane id="AC2A_1" index="1" speed="13.41" length="299.96" shape="948.88,904.63,-4.07 648.91,904.63,-4.07" />
    </edge>
    <edge id="B2BA" from="B" to="BA" priority="-1">
        <lane id="B2BA_0" index="0" speed="11.18" length="197.18" shape="844.50,599.87,-0.87 844.50,797.05,-0.87" />
    </edge>
    <edge id="B2BB" from="B" to="BB" priority="-1">
        <lane id="B2BB_0" index="0" speed="11.18" length="197.18" shape="850.10,591.07,-0.87 1047.28,591.07,-0.87" />
    </edge>
    <edge id="B2BC" from="B" to="BC" priority="-1">
        <lane id="B2BC_0" index="0" speed="11.18" length="197.18" shape="841.30,585.47,-0.87 841.30,388.29,-0.87" />
    </edge>
    <edge id="B2TL" from="B" to="TL" priority="-1">
        <lane id="B2TL_0" index="0" speed="11.18" length="186.79" shape="835.70,594.27,-0.84 648.91,594.27,-0.04" />
    </edge>
    <edge id="BA2B" from="BA" to="B" priority="-1">
        <lane id="BA2B_0" index="0" speed="11.18" length="197.18" shape="841.30,797.05,-0.87 841.30,599.87,-0.87" />
    </edge>
    <edge id="BB2B" from="BB" to="B" priority="-1">
        <lane id="BB2B_0" index="0" speed="11.18" length="197.18" shape="1047.28,594.27,-0.87 850.10,594.27,-0.87" />
    </edge>
    <edge id="BC2B" from="BC" to="B" priority="-1">
        <lane id="BC2B_0" index="0" speed="11.18" length="197.18" shape="844.50,388.29,-0.87 844.50,585.47,-0.87" />
    </edge>
    <edge id="C2CA" from="C" to="CA" priority="-1">
        <lane id="C2CA_0" index="0" speed="13.41" length="285.93" shape="648.91,291.53,-3.88 934.85,291.53,-3.88" />
        <lane id="C2CA_1" index="1" speed="13.41" length="285.93" shape="648.91,294.73,-3.88 934.85,294.73,-3.88" />
    </edge>
    <edge id="C2CB" from="C" to="CB" priority="-1">
        <lane id="C2CB_0" index="0" speed="13.41" length="285.93" shape="633.71,285.93,-3.88 633.71,-0.00,-3.88" />
        <lane id="C2CB_1" index="1" speed="13.41" length="285.93" shape="636.91,285.93,-3.88 636.91,-0.00,-3.88" />
    </edge>
    <edge id="C2CC" from="C" to="CC" priority="-1">
        <lane id="C2CC_0" index="0" speed="13.41" length="285.93" shape="628.11,301.13,-3.88 342.18,301.13,-3.88" />
        <lane id="C2CC_1" index="1" speed="13.41" length="285.93" shape="628.11,297.93,-3.88 342.18,297.93,-3.88" />
    </edge>
    <edge id="C2TL" from="C" to="TL" priority="-1">
        <lane id="C2TL_0" index="0" speed="13.41" length="278.76" shape="643.31,306.73,-3.75 643.31,585.47,-0.09" />
        <lane id="C2TL_1" index="1" speed="13.41" length="278.76" shape="640.11,306.73,-3.75 640.11,585.47,-0.09" />
    </edge>