<net xmlns:xsi="http://www.w3.org/2001/XMLSchema-instance" version="1.9" junctionCornerDetail="5" limitTurnSpeed="5.50" xsi:noNamespaceSchemaLocation="http://sumo.dlr.de/xsd/net_file.xsd">

    <location netOffset="622.74,634.74" convBoundary="0.00,0.00,1222.51,1090.98" origBoundary="-622.74,-634.74,599.77,456.23" projParameter="!" />

    <edge id=":A_0" function="internal">
        <lane id=":A_0_0" index="0" speed="7.33" length="11.73" shape="617.94,873.26,1.11 617.59,869.41,1.11 616.54,866.66,1.11 614.79,865.01,1.11 612.34,864.46,1.11" />
    </edge>
    <edge id=":A_1" function="internal">
        <lane id=":A_1_0" index="0" speed="8.94" length="20.80" shape="617.94,873.26,1.11 617.94,852.46,1.06" />
        <lane id=":A_1_1" index="1" speed="8.94" length="20.80" shape="621.14,873.26,1.11 621.14,852.46,1.06" />
    </edge>
    <edge id=":A_3" function="internal">
        <lane id=":A_3_0" index="0" speed="8.67" length="5.56" shape="621.14,873.26,1.11 621.69,868.01,1.11 621.81,867.75,1.11" />
    </edge>
    <edge id=":A_4" function="internal">
        <lane id=":A_4_0" index="0" speed="3.65" length="1.44" shape="621.14,873.26,1.11 621.94,872.06,1.11" />
    </edge>
    <edge id=":A_17" function="internal">
        <lane id=":A_17_0" index="0" speed="8.67" length="11.29" shape="621.81,867.75,1.11 623.34,864.26,1.11 626.09,862.01,1.11 629.94,861.26,1.11" />
    </edge>
    <edge id=":A_18" function="internal">
        <lane id=":A_18_0" index="0" speed="3.65" length="3.23" shape="621.94,872.06,1.11 622.74,871.66,1.11 623.54,872.06,1.11 624.34,873.26,1.11" />
    </edge>
    <edge id=":A_5" function="internal">
        <lane id=":A_5_0" index="0" speed="6.51" length="9.03" shape="629.94,867.66,1.11 627.49,868.01,1.11 625.74,869.06,1.11 624.69,870.81,1.11 624.34,873.26,1.11" />
    </edge>
    <edge id=":A_6" function="internal">
        <lane id=":A_6_0" index="0" speed="8.94" length="17.95" shape="629.94,867.66,1.11 624.12,867.16,1.11 619.66,866.06,1.11 615.94,864.96,1.11 612.34,864.46,1.11" />
    </edge>
    <edge id=":A_7" function="internal">
        <lane id=":A_7_0" index="0" speed="8.67" length="4.68" shape="629.94,864.46,1.11 626.09,863.71,1.10 625.51,863.23,1.10" />
    </edge>
    <edge id=":A_8" function="internal">
        <lane id=":A_8_0" index="0" speed="3.65" length="1.44" shape="629.94,864.46,1.11 628.74,863.66,1.11" />
    </edge>
    <edge id=":A_19" function="internal">
        <lane id=":A_19_0" index="0" speed="8.67" length="12.17" shape="625.51,863.23,1.10 623.34,861.46,1.09 621.69,857.71,1.08 621.14,852.46,1.06" />
    </edge>
    <edge id=":A_20" function="internal">
        <lane id=":A_20_0" index="0" speed="3.65" length="3.23" shape="628.74,863.66,1.11 628.34,862.86,1.11 628.74,862.06,1.11 629.94,861.26,1.11" />
    </edge>
    <edge id=":A_9" function="internal">
        <lane id=":A_9_0" index="0" speed="7.33" length="11.73" shape="624.34,852.46,1.06 624.69,856.31,1.08 625.74,859.06,1.09 627.49,860.71,1.10 629.94,861.26,1.11" />
    </edge>
    <edge id=":A_10" function="internal">
        <lane id=":A_10_0" index="0" speed="8.94" length="20.80" shape="624.34,852.46,1.06 624.34,873.26,1.11" />
    </edge>
    <edge id=":A_11" function="internal">
        <lane id=":A_11_0" index="0" speed="8.94" length="5.01" shape="624.34,852.46,1.06 623.63,857.42,1.07" />
    </edge>
    <edge id=":A_12" function="internal">
        <lane id=":A_12_0" index="0" speed="3.65" length="1.44" shape="624.34,852.46,1.06 623.54,853.66,1.06" />
    </edge>
    <edge id=":A_21" function="internal">
        <lane id=":A_21_0" index="0" speed="8.94" length="14.34" shape="623.63,857.42,1.07 623.59,857.71,1.08 621.34,861.46,1.09 617.59,863.71,1.10 612.34,864.46,1.11" />
    </edge>
    <edge id=":A_22" function="internal">
        <lane id=":A_22_0" index="0" speed="3.65" length="3.23" shape="623.54,853.66,1.06 622.74,854.06,1.06 621.94,853.66,1.06 621.14,852.46,1.06" />
    </edge>
    <edge id=":A_13" function="internal">
        <lane id=":A_13_0" index="0" speed="6.51" length="9.03" shape="612.34,858.06,1.11 614.79,857.71,1.10 616.54,856.66,1.09 617.59,854.91,1.08 617.94,852.46,1.06" />
    </edge>
    <edge id=":A_14" function="internal">
        <lane id=":A_14_0" index="0" speed="8.94" length="17.95" shape="612.34,858.06,1.11 618.16,858.56,1.11 622.62,859.66,1.11 626.34,860.76,1.11 629.94,861.26,1.11" />
    </edge>
    <edge id=":A_15" function="internal">
        <lane id=":A_15_0" index="0" speed="8.94" length="8.24" shape="612.34,861.26,1.11 617.59,862.01,1.11 620.11,863.52,1.11" />
    </edge>
    <edge id=":A_16" function="internal">
        <lane id=":A_16_0" index="0" speed="3.65" length="1.44" shape="612.34,861.26,1.11 613.54,862.06,1.11" />
    </edge>
    <edge id=":A_23" function="internal">
        <lane id=":A_23_0" index="0" speed="8.94" length="11.12" shape="620.11,863.52,1.11 621.34,864.26,1.11 623.59,868.01,1.11 624.34,873.26,1.11" />
    </edge>
    <edge id=":A_24" function="internal">
        <lane id=":A_24_0" index="0" speed="3.65" length="3.23" shape="613.54,862.06,1.11 613.94,862.86,1.11 613.54,863.66,1.11 612.34,864.46,1.11" />
    </edge>
    <edge id=":AA_0" function="internal">
        <lane id=":AA_0_0" index="0" speed="3.65" length="4.67" shape="394.63,864.46,1.11 393.43,863.66,1.11 393.03,862.86,1.11 393.43,862.06,1.11 394.63,861.26,1.11" />
    </edge>
    <edge id=":AB_0" function="internal">
        <lane id=":AB_0_0" index="0" speed="3.65" length="4.67" shape="624.34,1090.98,1.11 623.54,1092.18,1.11 622.74,1092.58,1.11 621.94,1092.18,1.11 621.14,1090.98,1.11" />
    </edge>
    <edge id=":AC_0" function="internal">
        <lane id=":AC_0_0" index="0" speed="3.65" length="4.67" shape="850.86,861.26,1.11 852.06,862.06,1.11 852.46,862.86,1.11 852.06,863.66,1.11 850.86,864.46,1.11" />
    </edge>
    <edge id=":B_0" function="internal">
        <lane id=":B_0_0" index="0" speed="6.51" length="9.03" shape="911.43,651.54,-6.49 911.08,649.09,-6.49 910.03,647.34,-6.49 908.28,646.29,-6.49 905.83,645.94,-6.49" />
    </edge>
    <edge id=":B_1" function="internal">
        <lane id=":B_1_0" index="0" speed="8.94" length="30.62" shape="911.43,651.54,-6.49 911.93,642.46,-6.49 913.03,636.24,-6.49 914.13,630.07,-6.49 914.63,621.14,-6.49" />
        <lane id=":B_1_1" index="1" speed="8.94" length="30.62" shape="914.63,651.54,-6.49 915.13,642.46,-6.49 916.23,636.24,-6.49 917.33,630.07,-6.49 917.83,621.14,-6.49" />
        <lane id=":B_1_2" index="2" speed="8.94" length="30.62" shape="917.83,651.54,-6.49 918.33,642.46,-6.49 919.43,636.24,-6.49 920.53,630.07,-6.49 921.03,621.14,-6.49" />
    </edge>
    <edge id=":B_4" function="internal">
        <lane id=":B_4_0" index="0" speed="8.94" length="7.98" shape="921.03,651.54,-6.49 922.16,643.64,-6.49" />
    </edge>
    <edge id=":B_5" function="internal">
        <lane id=":B_5_0" index="0" speed="3.65" length="1.44" shape="921.03,651.54,-6.49 921.83,650.34,-6.49" />
    </edge>
    <edge id=":B_25" function="internal">
        <lane id=":B_25_0" index="0" speed="8.94" length="21.69" shape="922.16,643.64,-6.49 922.18,643.49,-6.49 925.63,637.74,-6.49 931.38,634.29,-6.49 939.43,633.14,-6.49" />
    </edge>
    <edge id=":B_26" function="internal">
        <lane id=":B_26_0" index="0" speed="3.65" length="3.23" shape="921.83,650.34,-6.49 922.63,649.94,-6.49 923.43,650.34,-6.49 924.23,651.54,-6.49" />
    </edge>
    <edge id=":B_6" function="internal">
        <lane id=":B_6_0" index="0" speed="7.33" length="11.73" shape="939.43,645.94,-6.49 935.58,646.29,-6.49 932.83,647.34,-6.49 931.18,649.09,-6.49 930.63,651.54,-6.49" />
    </edge>
    <edge id=":B_7" function="internal">
        <lane id=":B_7_0" index="0" speed="8.94" length="33.60" shape="939.43,645.94,-6.49 905.83,645.94,-6.49" />
        <lane id=":B_7_1" index="1" speed="8.94" length="33.60" shape="939.43,642.74,-6.49 905.83,642.74,-6.49" />
        <lane id=":B_7_2" index="2" speed="8.94" length="33.60" shape="939.43,639.54,-6.49 905.83,639.54,-6.49" />
        <lane id=":B_7_3" index="3" speed="8.94" length="33.60" shape="939.43,636.34,-6.49 905.83,636.34,-6.49" />
    </edge>
    <edge id=":B_11" function="internal">
        <lane id=":B_11_0" index="0" speed="8.94" length="6.03" shape="939.43,636.34,-6.49 933.44,635.64,-6.49" />
    </edge>
    <edge id=":B_12" function="internal">
        <lane id=":B_12_0" index="0" speed="3.65" length="1.44" shape="939.43,636.34,-6.49 938.23,635.54,-6.49" />
    </edge>
    <edge id=":B_27" function="internal">
        <lane id=":B_27_0" index="0" speed="8.94" length="21.12" shape="933.44,635.64,-6.49 931.38,635.39,-6.49 925.63,632.54,-6.49 922.18,627.79,-6.49 921.03,621.14,-6.49" />
    </edge>
    <edge id=":B_28" function="internal">
        <lane id=":B_28_0" index="0" speed="3.65" length="3.23" shape="938.23,635.54,-6.49 937.83,634.74,-6.49 938.23,633.94,-6.49 939.43,633.14,-6.49" />
    </edge>
    <edge id=":B_13" function="internal">
        <lane id=":B_13_0" index="0" speed="6.51" length="9.03" shape="933.83,621.14,-6.49 934.18,623.59,-6.49 935.23,625.34,-6.49 936.98,626.39,-6.49 939.43,626.74,-6.49" />
    </edge>
    <edge id=":B_14" function="internal">
        <lane id=":B_14_0" index="0" speed="8.94" length="30.62" shape="933.83,621.14,-6.49 933.33,630.23,-6.49 932.23,636.45,-6.49 931.13,642.62,-6.49 930.63,651.54,-6.49" />
        <lane id=":B_14_1" index="1" speed="8.94" length="30.62" shape="930.63,621.14,-6.49 930.13,630.23,-6.49 929.03,636.45,-6.49 927.93,642.62,-6.49 927.43,651.54,-6.49" />
        <lane id=":B_14_2" index="2" speed="8.94" length="30.62" shape="927.43,621.14,-6.49 926.93,630.23,-6.49 925.83,636.45,-6.49 924.73,642.62,-6.49 924.23,651.54,-6.49" />
    </edge>
    <edge id=":B_17" function="internal">
        <lane id=":B_17_0" index="0" speed="8.94" length="6.09" shape="924.23,621.14,-6.49 923.19,627.15,-6.49" />
    </edge>
    <edge id=":B_18" function="internal">
        <lane id=":B_18_0" index="0" speed="3.65" length="1.44" shape="924.23,621.14,-6.49 923.43,622.34,-6.49" />
    </edge>
    <edge id=":B_29" function="internal">
        <lane id=":B_29_0" index="0" speed="8.94" length="21.05" shape="923.19,627.15,-6.49 923.08,627.79,-6.49 919.63,632.54,-6.49 913.88,635.39,-6.49 905.83,636.34,-6.49" />
    </edge>
    <edge id=":B_30" function="internal">
        <lane id=":B_30_0" index="0" speed="3.65" length="3.23" shape="923.43,622.34,-6.49 922.63,622.74,-6.49 921.83,622.34,-6.49 921.03,621.14,-6.49" />
    </edge>
    <edge id=":B_19" function="internal">
        <lane id=":B_19_0" index="0" speed="7.33" length="11.73" shape="905.83,626.74,-6.49 909.68,626.39,-6.49 912.43,625.34,-6.49 914.08,623.59,-6.49 914.63,621.14,-6.49" />
    </edge>
    <edge id=":B_20" function="internal">
        <lane id=":B_20_0" index="0" speed="8.94" length="33.60" shape="905.83,626.74,-6.49 939.43,626.74,-6.49" />
        <lane id=":B_20_1" index="1" speed="8.94" length="33.60" shape="905.83,629.94,-6.49 939.43,629.94,-6.49" />
        <lane id=":B_20_2" index="2" speed="8.94" length="33.60" shape="905.83,633.14,-6.49 939.43,633.14,-6.49" />
    </edge>
    <edge id=":B_23" function="internal">
        <lane id=":B_23_0" index="0" speed="8.94" length="5.01" shape="905.83,633.14,-6.49 910.79,633.85,-6.49" />
    </edge>
    <edge id=":B_24" function="internal">
        <lane id=":B_24_0" index="0" speed="3.65" length="1.44" shape="905.83,633.14,-6.49 907.03,633.94,-6.49" />
    </edge>
    <edge id=":B_31" function="internal">
        <lane id=":B_31_0" index="0" speed="8.94" length="24.66" shape="910.79,633.85,-6.49 913.88,634.29,-6.49 919.63,637.74,-6.49 923.08,643.49,-6.49 924.23,651.54,-6.49" />
    </edge>
    <edge id=":B_32" function="internal">
        <lane id=":B_32_0" index="0" speed="3.65" length="3.23" shape="907.03,633.94,-6.49 907.43,634.74,-6.49 907.03,635.54,-6.49 905.83,636.34,-6.49" />
    </edge>
    <edge id=":BA_0" function="internal">
        <lane id=":BA_0_0" index="0" speed="3.65" length="4.67" shape="924.23,934.63,-6.49 923.43,935.83,-6.49 922.63,936.23,-6.49 921.83,935.83,-6.49 921.03,934.63,-6.49" />
    </edge>
    <edge id=":BB_0" function="internal">
        <lane id=":BB_0_0" index="0" speed="3.65" length="4.67" shape="1222.51,633.14,-6.49 1223.71,633.94,-6.49 1224.11,634.74,-6.49 1223.71,635.54,-6.49 1222.51,636.34,-6.49" />
    </edge>
    <edge id=":BC_0" function="internal">
        <lane id=":BC_0_0" index="0" speed="3.65" length="4.67" shape="921.03,334.86,-6.49 921.83,333.66,-6.49 922.63,333.26,-6.49 923.43,333.66,-6.49 924.23,334.86,-6.49" />
    </edge>
    <edge id=":C_0" function="internal">
        <lane id=":C_0_0" index="0" speed="7.33" length="11.73" shape="621.14,327.77,-5.32 620.79,323.92,-5.39 619.74,321.17,-5.43 617.99,319.52,-5.47 615.54,318.97,-5.51" />
    </edge>
    <edge id=":C_1" function="internal">
        <lane id=":C_1_0" index="0" speed="8.94" length="20.80" shape="621.14,327.77,-5.32 621.14,306.97,-5.51" />
    </edge>
    <edge id=":C_2" function="internal">
        <lane id=":C_2_0" index="0" speed="8.94" length="5.01" shape="621.14,327.77,-5.32 621.85,322.81,-5.37" />
    </edge>
    <edge id=":C_3" function="internal">
        <lane id=":C_3_0" index="0" speed="3.65" length="1.44" shape="621.14,327.77,-5.32 621.94,326.57,-5.33" />
    </edge>
    <edge id=":C_17" function="internal">
        <lane id=":C_17_0" index="0" speed="8.94" length="14.34" shape="621.85,322.81,-5.37 621.89,322.52,-5.38 624.14,318.77,-5.42 627.89,316.52,-5.46 633.14,315.77,-5.51" />
    </edge>
    <edge id=":C_18" function="internal">
        <lane id=":C_18_0" index="0" speed="3.65" length="3.23" shape="621.94,326.57,-5.33 622.74,326.17,-5.33 623.54,326.57,-5.33 624.34,327.77,-5.33" />
    </edge>
    <edge id=":C_4" function="internal">
        <lane id=":C_4_0" index="0" speed="6.51" length="9.03" shape="633.14,322.17,-5.51 630.69,322.52,-5.46 628.94,323.57,-5.42 627.89,325.32,-5.38 627.54,327.77,-5.33" />
    </edge>
    <edge id=":C_5" function="internal">
        <lane id=":C_5_0" index="0" speed="8.94" length="17.95" shape="633.14,322.17,-5.51 627.32,321.67,-5.51 622.86,320.57,-5.51 619.14,319.47,-5.51 615.54,318.97,-5.51" />
    </edge>
    <edge id=":C_6" function="internal">
        <lane id=":C_6_0" index="0" speed="8.94" length="8.24" shape="633.14,318.97,-5.51 627.89,318.22,-5.51 625.38,316.71,-5.51" />
    </edge>
    <edge id=":C_7" function="internal">
        <lane id=":C_7_0" index="0" speed="3.65" length="1.44" shape="633.14,318.97,-5.51 631.94,318.17,-5.51" />
    </edge>
    <edge id=":C_19" function="internal">
        <lane id=":C_19_0" index="0" speed="8.94" length="11.12" shape="625.38,316.71,-5.51 624.14,315.97,-5.51 621.89,312.22,-5.51 621.14,306.97,-5.51" />
    </edge>
    <edge id=":C_20" function="internal">
        <lane id=":C_20_0" index="0" speed="3.65" length="3.23" shape="631.94,318.17,-5.51 631.54,317.37,-5.51 631.94,316.57,-5.51 633.14,315.77,-5.51" />
    </edge>
    <edge id=":C_8" function="internal">
        <lane id=":C_8_0" index="0" speed="7.33" length="11.73" shape="627.54,306.97,-5.51 627.89,310.82,-5.51 628.94,313.57,-5.51 630.69,315.22,-5.51 633.14,315.77,-5.51" />
    </edge>
    <edge id=":C_9" function="internal">
        <lane id=":C_9_0" index="0" speed="8.94" length="20.80" shape="627.54,306.97,-5.51 627.54,327.77,-5.33" />
        <lane id=":C_9_1" index="1" speed="8.94" length="20.80" shape="624.34,306.97,-5.51 624.34,327.77,-5.33" />
    </edge>
    <edge id=":C_11" function="internal">
        <lane id=":C_11_0" index="0" speed="8.67" length="5.56" shape="624.34,306.97,-5.51 623.79,312.22,-5.51 623.68,312.48,-5.51" />
    </edge>
    <edge id=":C_12" function="internal">
        <lane id=":C_12_0" index="0" speed="3.65" length="1.44" shape="624.34,306.97,-5.51 623.54,308.17,-5.51" />
    </edge>
    <edge id=":C_21" function="internal">
        <lane id=":C_21_0" index="0" speed="8.67" length="11.29" shape="623.68,312.48,-5.51 622.14,315.97,-5.51 619.39,318.22,-5.51 615.54,318.97,-5.51" />
    </edge>
    <edge id=":C_22" function="internal">
        <lane id=":C_22_0" index="0" speed="3.65" length="3.23" shape="623.54,308.17,-5.51 622.74,308.57,-5.51 621.94,308.17,-5.51 621.14,306.97,-5.51" />
    </edge>
    <edge id=":C_13" function="internal">
        <lane id=":C_13_0" index="0" speed="6.51" length="9.03" shape="615.54,312.57,-5.51 617.99,312.22,-5.51 619.74,311.17,-5.51 620.79,309.42,-5.51 621.14,306.97,-5.51" />
    </edge>
    <edge id=":C_14" function="internal">
        <lane id=":C_14_0" index="0" speed="8.94" length="17.95" shape="615.54,312.57,-5.51 621.36,313.07,-5.51 625.82,314.17,-5.51 629.54,315.27,-5.51 633.14,315.77,-5.51" />
    </edge>
    <edge id=":C_15" function="internal">
        <lane id=":C_15_0" index="0" speed="8.67" length="4.68" shape="615.54,315.77,-5.51 619.39,316.52,-5.47 619.98,317.00,-5.46" />
    </edge>
    <edge id=":C_16" function="internal">
        <lane id=":C_16_0" index="0" speed="3.65" length="1.44" shape="615.54,315.77,-5.51 616.74,316.57,-5.51" />
    </edge>
    <edge id=":C_23" function="internal">
        <lane id=":C_23_0" index="0" speed="8.67" length="12.17" shape="619.98,317.00,-5.46 622.14,318.77,-5.43 623.79,322.52,-5.39 624.34,327.77,-5.33" />
    </edge>
    <edge id=":C_24" function="internal">
        <lane id=":C_24_0" index="0" speed="3.65" length="3.23" shape="616.74,316.57,-5.51 617.14,317.37,-5.51 616.74,318.17,-5.51 615.54,318.97,-5.51" />
    </edge>
    <edge id=":CA_0" function="internal">
        <lane id=":CA_0_0" index="0" speed="3.65" length="4.67" shape="940.11,315.77,-5.51 941.31,316.57,-5.51 941.71,317.37,-5.51 941.31,318.17,-5.51 940.11,318.97,-5.51" />
    </edge>
    <edge id=":CB_0" function="internal">
        <lane id=":CB_0_0" index="0" speed="3.65" length="4.67" shape="621.14,0.00,-5.51 621.94,-1.20,-5.51 622.74,-1.60,-5.51 623.54,-1.20,-5.51 624.34,0.00,-5.51" />
    </edge>
    <edge id=":CC_0" function="internal">
        <lane id=":CC_0_0" index="0" speed="3.65" length="4.67" shape="305.37,318.97,-5.51 304.17,318.17,-5.51 303.77,317.37,-5.51 304.17,316.57,-5.51 305.37,315.77,-5.51" />
    </edge>
    <edge id=":D_0" function="internal">
        <lane id=":D_0_0" index="0" speed="6.51" length="9.03" shape="300.17,648.34,-4.93 299.82,645.89,-4.93 298.77,644.14,-4.93 297.02,643.09,-4.93 294.57,642.74,-4.93" />
    </edge>
    <edge id=":D_1" function="internal">
        <lane id=":D_1_0" index="0" speed="11.18" length="30.62" shape="300.17,648.34,-4.93 300.67,639.26,-4.93 301.77,633.04,-4.93 302.87,626.87,-4.93 303.37,617.94,-4.93" />
        <lane id=":D_1_1" index="1" speed="11.18" length="30.62" shape="303.37,648.34,-4.93 303.87,639.26,-4.93 304.97,633.04,-4.93 306.07,626.87,-4.93 306.57,617.94,-4.93" />
        <lane id=":D_1_2" index="2" speed="11.18" length="30.62" shape="306.57,648.34,-4.93 307.07,639.26,-4.93 308.17,633.04,-4.93 309.27,626.87,-4.93 309.77,617.94,-4.93" />
    </edge>
    <edge id=":D_4" function="internal">
        <lane id=":D_4_0" index="0" speed="10.88" length="6.09" shape="309.77,648.34,-4.93 310.81,642.34,-4.93" />
    </edge>
    <edge id=":D_5" function="internal">
        <lane id=":D_5_0" index="0" speed="3.65" length="1.44" shape="309.77,648.34,-4.93 310.57,647.14,-4.93" />
    </edge>
    <edge id=":D_25" function="internal">
        <lane id=":D_25_0" index="0" speed="10.88" length="21.05" shape="310.81,642.34,-4.93 310.92,641.69,-4.93 314.37,636.94,-4.93 320.12,634.09,-4.93 328.17,633.14,-4.93" />
    </edge>
    <edge id=":D_26" function="internal">
        <lane id=":D_26_0" index="0" speed="3.65" length="3.23" shape="310.57,647.14,-4.93 311.37,646.74,-4.93 312.17,647.14,-4.93 312.97,648.34,-4.93" />
    </edge>
    <edge id=":D_6" function="internal">
        <lane id=":D_6_0" index="0" speed="7.33" length="11.73" shape="328.17,642.74,-4.93 324.32,643.09,-4.93 321.57,644.14,-4.93 319.92,645.89,-4.93 319.37,648.34,-4.93" />
    </edge>
    <edge id=":D_7" function="internal">
        <lane id=":D_7_0" index="0" speed="11.18" length="33.60" shape="328.17,642.74,-4.93 294.57,642.74,-4.93" />
        <lane id=":D_7_1" index="1" speed="11.18" length="33.60" shape="328.17,639.54,-4.93 294.57,639.54,-4.93" />
        <lane id=":D_7_2" index="2" speed="11.18" length="33.60" shape="328.17,636.34,-4.93 294.57,636.34,-4.93" />
    </edge>
    <edge id=":D_10" function="internal">
        <lane id=":D_10_0" index="0" speed="11.18" length="5.01" shape="328.17,636.34,-4.93 323.21,635.64,-4.93" />
    </edge>
    <edge id=":D_11" function="internal">
        <lane id=":D_11_0" index="0" speed="3.65" length="1.44" shape="328.17,636.34,-4.93 326.97,635.54,-4.93" />
    </edge>
    <edge id=":D_27" function="internal">
        <lane id=":D_27_0" index="0" speed="11.18" length="24.66" shape="323.21,635.64,-4.93 320.12,635.19,-4.93 314.37,631.74,-4.93 310.92,625.99,-4.93 309.77,617.94,-4.93" />
    </edge>
    <edge id=":D_28" function="internal">
        <lane id=":D_28_0" index="0" speed="3.65" length="3.23" shape="326.97,635.54,-4.93 326.57,634.74,-4.93 326.97,633.94,-4.93 328.17,633.14,-4.93" />
    </edge>
    <edge id=":D_12" function="internal">
        <lane id=":D_12_0" index="0" speed="6.51" length="9.03" shape="322.57,617.94,-4.93 322.92,620.39,-4.93 323.97,622.14,-4.93 325.72,623.19,-4.93 328.17,623.54,-4.93" />
    </edge>
    <edge id=":D_13" function="internal">
        <lane id=":D_13_0" index="0" speed="11.18" length="30.62" shape="322.57,617.94,-4.93 322.07,627.03,-4.93 320.97,633.25,-4.93 319.87,639.42,-4.93 319.37,648.34,-4.93" />
        <lane id=":D_13_1" index="1" speed="11.18" length="30.62" shape="319.37,617.94,-4.93 318.87,627.03,-4.93 317.77,633.25,-4.93 316.67,639.42,-4.93 316.17,648.34,-4.93" />
        <lane id=":D_13_2" index="2" speed="11.18" length="30.62" shape="316.17,617.94,-4.93 315.67,627.03,-4.93 314.57,633.25,-4.93 313.47,639.42,-4.93 312.97,648.34,-4.93" />
    </edge>
    <edge id=":D_16" function="internal">
        <lane id=":D_16_0" index="0" speed="11.18" length="7.98" shape="312.97,617.94,-4.93 311.84,625.85,-4.93" />
    </edge>
    <edge id=":D_17" function="internal">
        <lane id=":D_17_0" index="0" speed="3.65" length="1.44" shape="312.97,617.94,-4.93 312.17,619.14,-4.93" />
    </edge>
    <edge id=":D_29" function="internal">
        <lane id=":D_29_0" index="0" speed="11.18" length="21.69" shape="311.84,625.85,-4.93 311.82,625.99,-4.93 308.37,631.74,-4.93 302.62,635.19,-4.93 294.57,636.34,-4.93" />
    </edge>
    <edge id=":D_30" function="internal">
        <lane id=":D_30_0" index="0" speed="3.65" length="3.23" shape="312.17,619.14,-4.93 311.37,619.54,-4.93 310.57,619.14,-4.93 309.77,617.94,-4.93" />
    </edge>
    <edge id=":D_18" function="internal">
        <lane id=":D_18_0" index="0" speed="7.33" length="11.73" shape="294.57,623.54,-4.93 298.42,623.19,-4.93 301.17,622.14,-4.93 302.82,620.39,-4.93 303.37,617.94,-4.93" />
    </edge>
    <edge id=":D_19" function="internal">
        <lane id=":D_19_0" index="0" speed="11.18" length="33.60" shape="294.57,623.54,-4.93 328.17,623.54,-4.93" />
        <lane id=":D_19_1" index="1" speed="11.18" length="33.60" shape="294.57,626.74,-4.93 328.17,626.74,-4.93" />
        <lane id=":D_19_2" index="2" speed="11.18" length="33.60" shape="294.57,629.94,-4.93 328.17,629.94,-4.93" />
        <lane id=":D_19_3" index="3" speed="11.18" length="33.60" shape="294.57,633.14,-4.93 328.17,633.14,-4.93" />
    </edge>
    <edge id=":D_23" function="internal">
        <lane id=":D_23_0" index="0" speed="10.88" length="6.03" shape="294.57,633.14,-4.93 300.56,633.85,-4.93" />
    </edge>
    <edge id=":D_24" function="internal">
        <lane id=":D_24_0" index="0" speed="3.65" length="1.44" shape="294.57,633.14,-4.93 295.77,633.94,-4.93" />
    </edge>
    <edge id=":D_31" function="internal">
        <lane id=":D_31_0" index="0" speed="10.88" length="21.12" shape="300.56,633.85,-4.93 302.62,634.09,-4.93 308.37,636.94,-4.93 311.82,641.69,-4.93 312.97,648.34,-4.93" />
    </edge>
    <edge id=":D_32" function="internal">
        <lane id=":D_32_0" index="0" speed="3.65" length="3.23" shape="295.77,633.94,-4.93 296.17,634.74,-4.93 295.77,635.54,-4.93 294.57,636.34,-4.93" />
    </edge>
    <edge id=":DA_0" function="internal">
        <lane id=":DA_0_0" index="0" speed="3.65" length="4.67" shape="309.77,323.37,-4.93 310.57,322.17,-4.93 311.37,321.77,-4.93 312.17,322.17,-4.93 312.97,323.37,-4.93" />
    </edge>
    <edge id=":DB_0" function="internal">
        <lane id=":DB_0_0" index="0" speed="3.65" length="4.67" shape="-0.00,636.34,-4.93 -1.20,635.54,-4.93 -1.60,634.74,-4.93 -1.20,633.94,-4.93 -0.00,633.14,-4.93" />
    </edge>
    <edge id=":DC_0" function="internal">
        <lane id=":DC_0_0" index="0" speed="3.65" length="4.67" shape="312.97,946.12,-4.93 312.17,947.32,-4.93 311.37,947.72,-4.93 310.57,947.32,-4.93 309.77,946.12,-4.93" />
    </edge>
    <edge id=":TL_0" function="internal">
        <lane id=":TL_0_0" index="0" speed="7.33" length="11.73" shape="617.94,651.54,0.08 617.59,647.69,0.00 616.54,644.94,-0.06 614.79,643.29,-0.11 612.34,642.74,-0.16" />
    </edge>
    <edge id=":TL_1" function="internal">
        <lane id=":TL_1_0" index="0" speed="8.94" length="33.76" shape="617.94,651.54,0.08 618.44,642.78,0.06 619.54,632.87,0.04 620.64,623.90,0.01 621.14,617.94" />
    </edge>
    <edge id=":TL_2" function="internal">
        <lane id=":TL_2_0" index="0" speed="8.94" length="10.70" shape="621.14,651.54,0.08 621.89,643.49,0.06 622.84,641.06,0.05" />
    </edge>
    <edge id=":TL_16" function="internal">
        <lane id=":TL_16_0" index="0" speed="8.94" length="14.03" shape="622.84,641.06,0.05 624.14,637.74,0.03 627.89,634.29,0.02 633.14,633.14" />
    </edge>
    <edge id=":TL_3" function="internal">
        <lane id=":TL_3_0" index="0" speed="7.33" length="11.73" shape="633.14,645.94 629.29,646.29,0.03 626.54,647.34,0.05 624.89,649.09,0.06 624.34,651.54,0.08" />
    </edge>
    <edge id=":TL_4" function="internal">
        <lane id=":TL_4_0" index="0" speed="10.06" length="21.12" shape="633.14,645.94 626.93,645.44,-0.05 622.74,644.34,-0.08 618.55,643.24,-0.12 612.34,642.74,-0.16" />
        <lane id=":TL_4_1" index="1" speed="10.06" length="21.12" shape="633.14,642.74 626.93,642.24,-0.05 622.74,641.14,-0.08 618.55,640.04,-0.12 612.34,639.54,-0.16" />
        <lane id=":TL_4_2" index="2" speed="10.06" length="21.12" shape="633.14,639.54 626.93,639.04,-0.05 622.74,637.94,-0.08 618.55,636.84,-0.12 612.34,636.34,-0.16" />
    </edge>
    <edge id=":TL_7" function="internal">
        <lane id=":TL_7_0" index="0" speed="8.94" length="5.14" shape="633.14,636.34 628.12,635.24" />
    </edge>
    <edge id=":TL_17" function="internal">
        <lane id=":TL_17_0" index="0" speed="8.94" length="19.59" shape="628.12,635.24 627.89,635.19 624.14,631.74 621.89,625.99 621.14,617.94" />
    </edge>
    <edge id=":TL_8" function="internal">
        <lane id=":TL_8_0" index="0" speed="7.33" length="11.73" shape="627.54,617.94 627.89,621.79 628.94,624.54 630.69,626.19 633.14,626.74" />
    </edge>
    <edge id=":TL_9" function="internal">
        <lane id=":TL_9_0" index="0" speed="8.94" length="33.76" shape="627.54,617.94 627.04,626.71,0.02 625.94,636.62,0.05 624.84,645.59,0.07 624.34,651.54,0.08" />
    </edge>
    <edge id=":TL_10" function="internal">
        <lane id=":TL_10_0" index="0" speed="10.06" length="10.70" shape="624.34,617.94 623.59,625.99,-0.05 622.64,628.43,-0.07" />
    </edge>
    <edge id=":TL_18" function="internal">
        <lane id=":TL_18_0" index="0" speed="10.06" length="14.03" shape="622.64,628.43,-0.07 621.34,631.74,-0.10 617.59,635.19,-0.13 612.34,636.34,-0.16" />
    </edge>
    <edge id=":TL_11" function="internal">
        <lane id=":TL_11_0" index="0" speed="7.33" length="11.73" shape="612.34,623.54,-0.17 616.19,623.19,-0.12 618.94,622.14,-0.07 620.59,620.39,-0.04 621.14,617.94" />
    </edge>
    <edge id=":TL_12" function="internal">
        <lane id=":TL_12_0" index="0" speed="10.06" length="21.12" shape="612.34,623.54,-0.17 618.55,624.04,-0.12 622.74,625.14,-0.09 626.93,626.24,-0.05 633.14,626.74" />
        <lane id=":TL_12_1" index="1" speed="10.06" length="21.12" shape="612.34,626.74,-0.17 618.55,627.24,-0.12 622.74,628.34,-0.09 626.93,629.44,-0.05 633.14,629.94" />
        <lane id=":TL_12_2" index="2" speed="10.06" length="21.12" shape="612.34,629.94,-0.17 618.55,630.44,-0.12 622.74,631.54,-0.09 626.93,632.64,-0.05 633.14,633.14" />
    </edge>
    <edge id=":TL_15" function="internal">
        <lane id=":TL_15_0" index="0" speed="10.06" length="5.14" shape="612.34,633.14,-0.17 617.36,634.24,-0.12" />
    </edge>
    <edge id=":TL_19" function="internal">
        <lane id=":TL_19_0" index="0" speed="10.06" length="19.59" shape="617.36,634.24,-0.12 617.59,634.29,-0.12 621.34,637.74,-0.07 623.59,643.49,-0.00 624.34,651.54,0.08" />
    </edge>

    <edge id="A2AA" from="A" to="AA" priority="-1">
        <lane id="A2AA_0" index="0" speed="8.94" length="217.72" shape="612.34,864.46,1.11 394.63,864.46,1.11" />
    </edge>
    <edge id="A2AB" from="A" to="AB" priority="-1">
        <lane id="A2AB_0" index="0" speed="8.94" length="217.72" shape="624.34,873.26,1.11 624.34,1090.98,1.11" />
    </edge>
    <edge id="A2AC" from="A" to="AC" priority="-1">
        <lane id="A2AC_0" index="0" speed="8.94" length="220.92" shape="629.94,861.26,1.11 850.86,861.26,1.11" />
    </edge>
    <edge id="A2TL" from="A" to="TL" priority="-1">
        <lane id="A2TL_0" index="0" speed="8.94" length="200.92" shape="617.94,852.46,1.06 617.94,651.54,0.08" />
        <lane id="A2TL_1" index="1" speed="8.94" length="200.92" shape="621.14,852.46,1.06 621.14,651.54,0.08" />
    </edge>
    <edge id="AA2A" from="AA" to="A" priority="-1">