<net xmlns:xsi="http://www.w3.org/2001/XMLSchema-instance" version="1.9" junctionCornerDetail="5" limitTurnSpeed="5.50" xsi:noNamespaceSchemaLocation="http://sumo.dlr.de/xsd/net_file.xsd">

    <location netOffset="664.36,595.12" convBoundary="0.00,0.00,1372.90,1185.02" origBoundary="-664.36,-595.12,708.54,589.90" projParameter="!" />

    <edge id=":A_0" function="internal">
        <lane id=":A_0_0" index="0" speed="6.51" length="9.03" shape="662.76,897.27 662.41,894.82 661.36,893.07 659.61,892.02 657.16,891.67" />
    </edge>
    <edge id=":A_1" function="internal">
        <lane id=":A_1_0" index="0" speed="11.18" length="14.40" shape="662.76,897.27 662.76,882.87" />
    </edge>
    <edge id=":A_2" function="internal">
        <lane id=":A_2_0" index="0" speed="8.00" length="4.07" shape="662.76,897.27 663.31,893.42 663.40,893.27" />
    </edge>
    <edge id=":A_3" function="internal">
        <lane id=":A_3_0" index="0" speed="3.65" length="1.44" shape="662.76,897.27 663.56,896.07" />
    </edge>
    <edge id=":A_16" function="internal">
        <lane id=":A_16_0" index="0" speed="8.00" length="10.13" shape="663.40,893.27 664.96,890.67 667.71,889.02 671.56,888.47" />
    </edge>
    <edge id=":A_17" function="internal">
        <lane id=":A_17_0" index="0" speed="3.65" length="3.23" shape="663.56,896.07 664.36,895.67 665.16,896.07 665.96,897.27" />
    </edge>
    <edge id=":A_4" function="internal">
        <lane id=":A_4_0" index="0" speed="6.51" length="9.03" shape="671.56,891.67 669.11,892.02 667.36,893.07 666.31,894.82 665.96,897.27" />
    </edge>
    <edge id=":A_5" function="internal">
        <lane id=":A_5_0" index="0" speed="11.18" length="14.40" shape="671.56,891.67 657.16,891.67" />
    </edge>
    <edge id=":A_6" function="internal">
        <lane id=":A_6_0" index="0" speed="8.00" length="4.07" shape="671.56,891.67 667.71,891.12 667.56,891.03" />
    </edge>
    <edge id=":A_7" function="internal">
        <lane id=":A_7_0" index="0" speed="3.65" length="1.44" shape="671.56,891.67 670.36,890.87" />
    </edge>
    <edge id=":A_18" function="internal">
        <lane id=":A_18_0" index="0" speed="8.00" length="10.13" shape="667.56,891.03 664.96,889.47 663.31,886.72 662.76,882.87" />
    </edge>
    <edge id=":A_19" function="internal">
        <lane id=":A_19_0" index="0" speed="3.65" length="3.23" shape="670.36,890.87 669.96,890.07 670.36,889.27 671.56,888.47" />
    </edge>
    <edge id=":A_8" function="internal">
        <lane id=":A_8_0" index="0" speed="6.51" length="9.03" shape="665.96,882.87 666.31,885.32 667.36,887.07 669.11,888.12 671.56,888.47" />
    </edge>
    <edge id=":A_9" function="internal">
        <lane id=":A_9_0" index="0" speed="11.18" length="14.40" shape="665.96,882.87 665.96,897.27" />
    </edge>
    <edge id=":A_10" function="internal">
        <lane id=":A_10_0" index="0" speed="8.00" length="4.07" shape="665.96,882.87 665.41,886.72 665.32,886.87" />
    </edge>
    <edge id=":A_11" function="internal">
        <lane id=":A_11_0" index="0" speed="3.65" length="1.44" shape="665.96,882.87 665.16,884.07" />
    </edge>
    <edge id=":A_20" function="internal">
        <lane id=":A_20_0" index="0" speed="8.00" length="10.13" shape="665.32,886.87 663.76,889.47 661.01,891.12 657.16,891.67" />
    </edge>
    <edge id=":A_21" function="internal">
        <lane id=":A_21_0" index="0" speed="3.65" length="3.23" shape="665.16,884.07 664.36,884.47 663.56,884.07 662.76,882.87" />
    </edge>
    <edge id=":A_12" function="internal">
        <lane id=":A_12_0" index="0" speed="6.51" length="9.03" shape="657.16,888.47 659.61,888.12 661.36,887.07 662.41,885.32 662.76,882.87" />
    </edge>
    <edge id=":A_13" function="internal">
        <lane id=":A_13_0" index="0" speed="11.18" length="14.40" shape="657.16,888.47 671.56,888.47" />
    </edge>
    <edge id=":A_14" function="internal">
        <lane id=":A_14_0" index="0" speed="8.00" length="4.07" shape="657.16,888.47 661.01,889.02 661.16,889.11" />
    </edge>
    <edge id=":A_15" function="internal">
        <lane id=":A_15_0" index="0" speed="3.65" length="1.44" shape="657.16,888.47 658.36,889.27" />
    </edge>
    <edge id=":A_22" function="internal">
        <lane id=":A_22_0" index="0" speed="8.00" length="10.13" shape="661.16,889.11 663.76,890.67 665.41,893.42 665.96,897.27" />
    </edge>
    <edge id=":A_23" function="internal">
        <lane id=":A_23_0" index="0" speed="3.65" length="3.23" shape="658.36,889.27 658.76,890.07 658.36,890.87 657.16,891.67" />
    </edge>
    <edge id=":AA_0" function="internal">
        <lane id=":AA_0_0" index="0" speed="3.65" length="4.67" shape="369.41,891.67 368.21,890.87 367.81,890.07 368.21,889.27 369.41,888.47" />
    </edge>
    <edge id=":AB_0" function="internal">
        <lane id=":AB_0_0" index="0" speed="3.65" length="4.67" shape="665.96,1185.02 665.16,1186.22 664.36,1186.62 663.56,1186.22 662.76,1185.02" />
    </edge>
    <edge id=":AC_0" function="internal">
        <lane id=":AC_0_0" index="0" speed="3.65" length="4.67" shape="959.31,888.47 960.51,889.27 960.91,890.07 960.51,890.87 959.31,891.67" />
    </edge>
    <edge id=":B_0" function="internal">
        <lane id=":B_0_0" index="0" speed="6.51" length="9.03" shape="1017.03,602.32,-0.32 1016.68,599.87,-0.32 1015.63,598.12,-0.32 1013.88,597.07,-0.32 1011.43,596.72,-0.32" />
    </edge>
    <edge id=":B_1" function="internal">
        <lane id=":B_1_0" index="0" speed="17.88" length="14.40" shape="1017.03,602.32,-0.32 1017.03,587.92,-0.32" />
    </edge>
    <edge id=":B_2" function="internal">
        <lane id=":B_2_0" index="0" speed="8.00" length="4.07" shape="1017.03,602.32,-0.32 1017.58,598.47,-0.32 1017.67,598.32,-0.32" />
    </edge>
    <edge id=":B_3" function="internal">
        <lane id=":B_3_0" index="0" speed="3.65" length="1.44" shape="1017.03,602.32,-0.32 1017.83,601.12,-0.32" />
    </edge>
    <edge id=":B_16" function="internal">
        <lane id=":B_16_0" index="0" speed="8.00" length="10.13" shape="1017.67,598.32,-0.32 1019.23,595.72,-0.32 1021.98,594.07,-0.32 1025.83,593.52,-0.32" />
    </edge>
    <edge id=":B_17" function="internal">
        <lane id=":B_17_0" index="0" speed="3.65" length="3.23" shape="1017.83,601.12,-0.32 1018.63,600.72,-0.32 1019.43,601.12,-0.32 1020.23,602.32,-0.32" />
    </edge>
    <edge id=":B_4" function="internal">
        <lane id=":B_4_0" index="0" speed="6.51" length="9.03" shape="1025.83,596.72,-0.32 1023.38,597.07,-0.32 1021.63,598.12,-0.32 1020.58,599.87,-0.32 1020.23,602.32,-0.32" />
    </edge>
    <edge id=":B_5" function="internal">
        <lane id=":B_5_0" index="0" speed="17.88" length="14.40" shape="1025.83,596.72,-0.32 1011.43,596.72,-0.32" />
    </edge>
    <edge id=":B_6" function="internal">
        <lane id=":B_6_0" index="0" speed="8.00" length="4.07" shape="1025.83,596.72,-0.32 1021.98,596.17,-0.32 1021.83,596.08,-0.32" />
    </edge>
    <edge id=":B_7" function="internal">
        <lane id=":B_7_0" index="0" speed="3.65" length="1.44" shape="1025.83,596.72,-0.32 1024.63,595.92,-0.32" />
    </edge>
    <edge id=":B_18" function="internal">
        <lane id=":B_18_0" index="0" speed="8.00" length="10.13" shape="1021.83,596.08,-0.32 1019.23,594.52,-0.32 1017.58,591.77,-0.32 1017.03,587.92,-0.32" />
    </edge>
    <edge id=":B_19" function="internal">
        <lane id=":B_19_0" index="0" speed="3.65" length="3.23" shape="1024.63,595.92,-0.32 1024.23,595.12,-0.32 1024.63,594.32,-0.32 1025.83,593.52,-0.32" />
    </edge>
    <edge id=":B_8" function="internal">
        <lane id=":B_8_0" index="0" speed="6.51" length="9.03" shape="1020.23,587.92,-0.32 1020.58,590.37,-0.32 1021.63,592.12,-0.32 1023.38,593.17,-0.32 1025.83,593.52,-0.32" />
    </edge>
    <edge id=":B_9" function="internal">
        <lane id=":B_9_0" index="0" speed="17.88" length="14.40" shape="1020.23,587.92,-0.32 1020.23,602.32,-0.32" />
    </edge>
    <edge id=":B_10" function="internal">
        <lane id=":B_10_0" index="0" speed="8.00" length="4.07" shape="1020.23,587.92,-0.32 1019.68,591.77,-0.32 1019.59,591.92,-0.32" />
    </edge>
    <edge id=":B_11" function="internal">
        <lane id=":B_11_0" index="0" speed="3.65" length="1.44" shape="1020.23,587.92,-0.32 1019.43,589.12,-0.32" />
    </edge>
    <edge id=":B_20" function="internal">
        <lane id=":B_20_0" index="0" speed="8.00" length="10.13" shape="1019.59,591.92,-0.32 1018.03,594.52,-0.32 1015.28,596.17,-0.32 1011.43,596.72,-0.32" />
    </edge>
    <edge id=":B_21" function="internal">
        <lane id=":B_21_0" index="0" speed="3.65" length="3.23" shape="1019.43,589.12,-0.32 1018.63,589.52,-0.32 1017.83,589.12,-0.32 1017.03,587.92,-0.32" />
    </edge>
    <edge id=":B_12" function="internal">
        <lane id=":B_12_0" index="0" speed="6.51" length="9.03" shape="1011.43,593.52,-0.32 1013.88,593.17,-0.32 1015.63,592.12,-0.32 1016.68,590.37,-0.32 1017.03,587.92,-0.32" />
    </edge>
    <edge id=":B_13" function="internal">
        <lane id=":B_13_0" index="0" speed="17.88" length="14.40" shape="1011.43,593.52,-0.32 1025.83,593.52,-0.32" />
    </edge>
    <edge id=":B_14" function="internal">
        <lane id=":B_14_0" index="0" speed="8.00" length="4.07" shape="1011.43,593.52,-0.32 1015.28,594.07,-0.32 1015.43,594.16,-0.32" />
    </edge>
    <edge id=":B_15" function="internal">
        <lane id=":B_15_0" index="0" speed="3.65" length="1.44" shape="1011.43,593.52,-0.32 1012.63,594.32,-0.32" />
    </edge>
    <edge id=":B_22" function="internal">
        <lane id=":B_22_0" index="0" speed="8.00" length="10.13" shape="1015.43,594.16,-0.32 1018.03,595.72,-0.32 1019.68,598.47,-0.32 1020.23,602.32,-0.32" />
    </edge>
    <edge id=":B_23" function="internal">
        <lane id=":B_23_0" index="0" speed="3.65" length="3.23" shape="1012.63,594.32,-0.32 1013.03,595.12,-0.32 1012.63,595.92,-0.32 1011.43,596.72,-0.32" />
    </edge>
    <edge id=":BA_0" function="internal">
        <lane id=":BA_0_0" index="0" speed="3.65" length="4.67" shape="1020.23,949.39,-0.32 1019.43,950.59,-0.32 1018.63,950.99,-0.32 1017.83,950.59,-0.32 1017.03,949.39,-0.32" />
    </edge>
    <edge id=":BB_0" function="internal">
        <lane id=":BB_0_0" index="0" speed="3.65" length="4.67" shape="1372.90,593.52,-0.32 1374.10,594.32,-0.32 1374.50,595.12,-0.32 1374.10,595.92,-0.32 1372.90,596.72,-0.32" />
    </edge>
    <edge id=":BC_0" function="internal">
        <lane id=":BC_0_0" index="0" speed="3.65" length="4.67" shape="1017.03,240.85,-0.32 1017.83,239.65,-0.32 1018.63,239.25,-0.32 1019.43,239.65,-0.32 1020.23,240.85,-0.32" />
    </edge>
    <edge id=":C_0" function="internal">
        <lane id=":C_0_0" index="0" speed="6.51" length="9.03" shape="662.76,304.76 662.41,302.31 661.36,300.56 659.61,299.51 657.16,299.16" />
    </edge>
    <edge id=":C_1" function="internal">
        <lane id=":C_1_0" index="0" speed="11.18" length="14.40" shape="662.76,304.76 662.76,290.36" />
    </edge>
    <edge id=":C_2" function="internal">
        <lane id=":C_2_0" index="0" speed="8.00" length="4.07" shape="662.76,304.76 663.31,300.91 663.40,300.76" />
    </edge>
    <edge id=":C_3" function="internal">
        <lane id=":C_3_0" index="0" speed="3.65" length="1.44" shape="662.76,304.76 663.56,303.56" />
    </edge>
    <edge id=":C_16" function="internal">
        <lane id=":C_16_0" index="0" speed="8.00" length="10.13" shape="663.40,300.76 664.96,298.16 667.71,296.51 671.56,295.96" />
    </edge>
    <edge id=":C_17" function="internal">
        <lane id=":C_17_0" index="0" speed="3.65" length="3.23" shape="663.56,303.56 664.36,303.16 665.16,303.56 665.96,304.76" />
    </edge>
    <edge id=":C_4" function="internal">
        <lane id=":C_4_0" index="0" speed="6.51" length="9.03" shape="671.56,299.16 669.11,299.51 667.36,300.56 666.31,302.31 665.96,304.76" />
    </edge>
    <edge id=":C_5" function="internal">
        <lane id=":C_5_0" index="0" speed="11.18" length="14.40" shape="671.56,299.16 657.16,299.16" />
    </edge>
    <edge id=":C_6" function="internal">
        <lane id=":C_6_0" index="0" speed="8.00" length="4.07" shape="671.56,299.16 667.71,298.61 667.56,298.52" />
    </edge>
    <edge id=":C_7" function="internal">
        <lane id=":C_7_0" index="0" speed="3.65" length="1.44" shape="671.56,299.16 670.36,298.36" />
    </edge>
    <edge id=":C_18" function="internal">
        <lane id=":C_18_0" index="0" speed="8.00" length="10.13" shape="667.56,298.52 664.96,296.96 663.31,294.21 662.76,290.36" />
    </edge>
    <edge id=":C_19" function="internal">
        <lane id=":C_19_0" index="0" speed="3.65" length="3.23" shape="670.36,298.36 669.96,297.56 670.36,296.76 671.56,295.96" />
    </edge>
    <edge id=":C_8" function="internal">
        <lane id=":C_8_0" index="0" speed="6.51" length="9.03" shape="665.96,290.36 666.31,292.81 667.36,294.56 669.11,295.61 671.56,295.96" />
    </edge>
    <edge id=":C_9" function="internal">
        <lane id=":C_9_0" index="0" speed="11.18" length="14.40" shape="665.96,290.36 665.96,304.76" />
    </edge>
    <edge id=":C_10" function="internal">
        <lane id=":C_10_0" index="0" speed="8.00" length="4.07" shape="665.96,290.36 665.41,294.21 665.32,294.36" />
    </edge>
    <edge id=":C_11" function="internal">
        <lane id=":C_11_0" index="0" speed="3.65" length="1.44" shape="665.96,290.36 665.16,291.56" />
    </edge>
    <edge id=":C_20" function="internal">
        <lane id=":C_20_0" index="0" speed="8.00" length="10.13" shape="665.32,294.36 663.76,296.96 661.01,298.61 657.16,299.16" />
    </edge>
    <edge id=":C_21" function="internal">
        <lane id=":C_21_0" index="0" speed="3.65" length="3.23" shape="665.16,291.56 664.36,291.96 663.56,291.56 662.76,290.36" />
    </edge>
    <edge id=":C_12" function="internal">
        <lane id=":C_12_0" index="0" speed="6.51" length="9.03" shape="657.16,295.96 659.61,295.61 661.36,294.56 662.41,292.81 662.76,290.36" />
    </edge>
    <edge id=":C_13" function="internal">
        <lane id=":C_13_0" index="0" speed="11.18" length="14.40" shape="657.16,295.96 671.56,295.96" />
    </edge>
    <edge id=":C_14" function="internal">
        <lane id=":C_14_0" index="0" speed="8.00" length="4.07" shape="657.16,295.96 661.01,296.51 661.16,296.60" />
    </edge>
    <edge id=":C_15" function="internal">
        <lane id=":C_15_0" index="0" speed="3.65" length="1.44" shape="657.16,295.96 658.36,296.76" />
    </edge>
    <edge id=":C_22" function="internal">
        <lane id=":C_22_0" index="0" speed="8.00" length="10.13" shape="661.16,296.60 663.76,298.16 665.41,300.91 665.96,304.76" />
    </edge>
    <edge id=":C_23" function="internal">
        <lane id=":C_23_0" index="0" speed="3.65" length="3.23" shape="658.36,296.76 658.76,297.56 658.36,298.36 657.16,299.16" />
    </edge>
    <edge id=":CA_0" function="internal">
        <lane id=":CA_0_0" index="0" speed="3.65" length="4.67" shape="961.92,295.96 963.12,296.76 963.52,297.56 963.12,298.36 961.92,299.16" />
    </edge>
    <edge id=":CB_0" function="internal">
        <lane id=":CB_0_0" index="0" speed="3.65" length="4.67" shape="662.76,0.00 663.56,-1.20 664.36,-1.60 665.16,-1.20 665.96,0.00" />
    </edge>
    <edge id=":CC_0" function="internal">
        <lane id=":CC_0_0" index="0" speed="3.65" length="4.67" shape="366.80,299.16 365.60,298.36 365.20,297.56 365.60,296.76 366.80,295.96" />
    </edge>
    <edge id=":D_0" function="internal">
        <lane id=":D_0_0" index="0" speed="6.51" length="9.03" shape="330.58,602.32,0.51 330.23,599.87,0.51 329.18,598.12,0.51 327.43,597.07,0.51 324.98,596.72,0.51" />
    </edge>
    <edge id=":D_1" function="internal">
        <lane id=":D_1_0" index="0" speed="13.41" length="14.40" shape="330.58,602.32,0.51 330.58,587.92,0.51" />
    </edge>
    <edge id=":D_2" function="internal">
        <lane id=":D_2_0" index="0" speed="8.00" length="4.07" shape="330.58,602.32,0.51 331.13,598.47,0.50 331.22,598.32,0.50" />
    </edge>
    <edge id=":D_3" function="internal">
        <lane id=":D_3_0" index="0" speed="3.65" length="1.44" shape="330.58,602.32,0.51 331.38,601.12,0.51" />
    </edge>
    <edge id=":D_16" function="internal">
        <lane id=":D_16_0" index="0" speed="8.00" length="10.13" shape="331.22,598.32,0.50 332.78,595.72,0.50 335.53,594.07,0.50 339.38,593.52,0.50" />
    </edge>
    <edge id=":D_17" function="internal">
        <lane id=":D_17_0" index="0" speed="3.65" length="3.23" shape="331.38,601.12,0.51 332.18,600.72,0.51 332.98,601.12,0.51 333.78,602.32,0.51" />
    </edge>
    <edge id=":D_4" function="internal">
        <lane id=":D_4_0" index="0" speed="6.51" length="9.03" shape="339.38,596.72,0.50 336.93,597.07,0.50 335.18,598.12,0.50 334.13,599.87,0.50 333.78,602.32,0.51" />
    </edge>
    <edge id=":D_5" function="internal">
        <lane id=":D_5_0" index="0" speed="13.41" length="14.40" shape="339.38,596.72,0.50 324.98,596.72,0.51" />
    </edge>
    <edge id=":D_6" function="internal">
        <lane id=":D_6_0" index="0" speed="8.00" length="4.07" shape="339.38,596.72,0.50 335.53,596.17,0.50 335.38,596.08,0.50" />
    </edge>
    <edge id=":D_7" function="internal">
        <lane id=":D_7_0" index="0" speed="3.65" length="1.44" shape="339.38,596.72,0.50 338.18,595.92,0.50" />
    </edge>
    <edge id=":D_18" function="internal">
        <lane id=":D_18_0" index="0" speed="8.00" length="10.13" shape="335.38,596.08,0.50 332.78,594.52,0.50 331.13,591.77,0.50 330.58,587.92,0.51" />
    </edge>
    <edge id=":D_19" function="internal">
        <lane id=":D_19_0" index="0" speed="3.65" length="3.23" shape="338.18,595.92,0.50 337.78,595.12,0.50 338.18,594.32,0.50 339.38,593.52,0.50" />
    </edge>
    <edge id=":D_8" function="internal">
        <lane id=":D_8_0" index="0" speed="6.51" length="9.03" shape="333.78,587.92,0.51 334.13,590.37,0.50 335.18,592.12,0.50 336.93,593.17,0.50 339.38,593.52,0.50" />
    </edge>
    <edge id=":D_9" function="internal">
        <lane id=":D_9_0" index="0" speed="13.41" length="14.40" shape="333.78,587.92,0.51 333.78,602.32,0.51" />
    </edge>
    <edge id=":D_10" function="internal">
        <lane id=":D_10_0" index="0" speed="8.00" length="4.07" shape="333.78,587.92,0.51 333.23,591.77,0.51 333.14,591.92,0.51" />
    </edge>
    <edge id=":D_11" function="internal">
        <lane id=":D_11_0" index="0" speed="3.65" length="1.44" shape="333.78,587.92,0.51 332.98,589.12,0.51" />
    </edge>
    <edge id=":D_20" function="internal">
        <lane id=":D_20_0" index="0" speed="8.00" length="10.13" shape="333.14,591.92,0.51 331.58,594.52,0.51 328.83,596.17,0.51 324.98,596.72,0.51" />
    </edge>
    <edge id=":D_21" function="internal">
        <lane id=":D_21_0" index="0" speed="3.65" length="3.23" shape="332.98,589.12,0.51 332.18,589.52,0.51 331.38,589.12,0.51 330.58,587.92,0.51" />
    </edge>
    <edge id=":D_12" function="internal">
        <lane id=":D_12_0" index="0" speed="6.51" length="9.03" shape="324.98,593.52,0.51 327.43,593.17,0.51 329.18,592.12,0.51 330.23,590.37,0.51 330.58,587.92,0.51" />
    </edge>
    <edge id=":D_13" function="internal">
        <lane id=":D_13_0" index="0" speed="13.41" length="14.40" shape="324.98,593.52,0.51 339.38,593.52,0.50" />
    </edge>
    <edge id=":D_14" function="internal">
        <lane id=":D_14_0" index="0" speed="8.00" length="4.07" shape="324.98,593.52,0.51 328.83,594.07,0.51 328.98,594.16,0.51" />
    </edge>
    <edge id=":D_15" function="internal">
        <lane id=":D_15_0" index="0" speed="3.65" length="1.44" shape="324.98,593.52,0.51 326.18,594.32,0.51" />
    </edge>
    <edge id=":D_22" function="internal">
        <lane id=":D_22_0" index="0" speed="8.00" length="10.13" shape="328.98,594.16,0.51 331.58,595.72,0.51 333.23,598.47,0.51 333.78,602.32,0.51" />
    </edge>
    <edge id=":D_23" function="internal">
        <lane id=":D_23_0" index="0" speed="3.65" length="3.23" shape="326.18,594.32,0.51 326.58,595.12,0.51 326.18,595.92,0.51 324.98,596.72,0.51" />
    </edge>
    <edge id=":DA_0" function="internal">
        <lane id=":DA_0_0" index="0" speed="3.65" length="4.67" shape="330.58,262.94,0.51 331.38,261.74,0.51 332.18,261.34,0.51 332.98,261.74,0.51 333.78,262.94,0.51" />
    </edge>
    <edge id=":DB_0" function="internal">
        <lane id=":DB_0_0" index="0" speed="3.65" length="4.67" shape="-0.00,596.72,0.51 -1.20,595.92,0.51 -1.60,595.12,0.51 -1.20,594.32,0.51 0.00,593.52,0.51" />
    </edge>
    <edge id=":DC_0" function="internal">
        <lane id=":DC_0_0" index="0" speed="3.65" length="4.67" shape="333.78,927.30,0.51 332.98,928.50,0.51 332.18,928.90,0.51 331.38,928.50,0.51 330.58,927.30,0.51" />
    </edge>
    <edge id=":TL_0" function="internal">
        <lane id=":TL_0_0" index="0" speed="6.51" length="9.03" shape="662.76,602.32 662.41,599.87,0.00 661.36,598.12,0.01 659.61,597.07,0.01 657.16,596.72,0.01" />
    </edge>
    <edge id=":TL_1" function="internal">
        <lane id=":TL_1_0" index="0" speed="11.18" length="14.40" shape="662.76,602.32 662.76,587.92" />
    </edge>
    <edge id=":TL_2" function="internal">
        <lane id=":TL_2_0" index="0" speed="6.51" length="9.03" shape="671.56,596.72,-0.01 669.11,597.07,-0.00 667.36,598.12,-0.00 666.31,599.87,-0.00 665.96,602.32" />
    </edge>
    <edge id=":TL_3" function="internal">
        <lane id=":TL_3_0" index="0" speed="15.65" length="14.40" shape="671.56,596.72,-0.01 657.16,596.72,0.01" />
    </edge>
    <edge id=":TL_4" function="internal">
        <lane id=":TL_4_0" index="0" speed="6.51" length="9.03" shape="665.96,587.92 666.31,590.37,-0.00 667.36,592.12,-0.00 669.11,593.17,-0.00 671.56,593.52,-0.01" />
    </edge>
    <edge id=":TL_5" function="internal">
        <lane id=":TL_5_0" index="0" speed="11.18" length="14.40" shape="665.96,587.92 665.96,602.32" />
    </edge>
    <edge id=":TL_6" function="internal">
        <lane id=":TL_6_0" index="0" speed="6.51" length="9.03" shape="657.16,593.52,0.01 659.61,593.17,0.01 661.36,592.12,0.01 662.41,590.37,0.00 662.76,587.92" />
    </edge>
    <edge id=":TL_7" function="internal">
        <lane id=":TL_7_0" index="0" speed="15.65" length="14.40" shape="657.16,593.52,0.01 671.56,593.52,-0.01" />
    </edge>

    <edge id="A2AA" from="A" to="AA" priority="-1">
        <lane id="A2AA_0" index="0" speed="11.18" length="287.75" shape="657.16,891.67 369.41,891.67" />
    </edge>
    <edge id="A2AB" from="A" to="AB" priority="-1">
        <lane id="A2AB_0" index="0" speed="11.18" length="287.75" shape="665.96,897.27 665.96,1185.02" />
    </edge>
    <edge id="A2AC" from="A" to="AC" priority="-1">
        <lane id="A2AC_0" index="0" speed="11.18" length="287.75" shape="671.56,888.47 959.31,888.47" />
    </edge>
    <edge id="A2TL" from="A" to="TL" priority="-1">
        <lane id="A2TL_0" index="0" speed="11.18" length="280.55" shape="662.76,882.87 662.76,602.32" />
    </edge>
    <edge id="AA2A" from="AA" to="A" priority="-1">
        <lane id="AA2A_0" index="0" speed="11.18" length="287.75" shape="369.41,888.47 657.16,888.47" />
    </edge>
    <edge id="AB2A" from="AB" to="A" priority="-1">
        <lane id="AB2A_0" index="0" speed="11.18" length="287.75" shape="662.76,1185.02 662.76,897.27" />
    </edge>
    <edge id="AC2A" from="AC" to="A" priority="-1">
        <lane id="AC2A_0" index="0" speed="11.18" length="287.75" shape="959.31,891.67 671.56,891.67" />
    </edge>
    <edge id="B2BA" from="B" to="BA" priority="-1">
        <lane id="B2BA_0" index="0" speed="17.88" length="347.07" shape="1020.23,602.32,-0.32 1020.23,949.39,-0.32" />
    </edge>
    <edge id="B2BB" from="B" to="BB" priority="-1">
        <lane id="B2BB_0" index="0" speed="17.88" length="347.07" shape="1025.83,593.52,-0.32 1372.90,593.52,-0.32" />
    </edge>
    <edge id="B2BC" from="B" to="BC" priority="-1">
        <lane id="B2BC_0" index="0" speed="17.88" length="347.07" shape="1017.03,587.92,-0.32 1017.03,240.85,-0.32" />
    </edge>
    <edge id="B2TL" from="B" to="TL" priority="-1">
        <lane id="B2TL_0" index="0" speed="17.88" length="339.87" shape="1011.43,596.72,-0.32 671.56,596.72,-0.01" />
    </edge>
    <edge id="BA2B" from="BA" to="B" priority="-1">
        <lane id="BA2B_0" index="0" speed="17.88" length="347.07" shape="1017.03,949.39,-0.32 1017.03,602.32,-0.32" />
    </edge>
    <edge id="BB2B" from="BB" to="B" priority="-1">
        <lane id="BB2B_0" index="0" speed="17.88" length="347.07" shape="1372.90,596.72,-0.32 1025.83,596.72,-0.32" />
    </edge>
    <edge id="BC2B" from="BC" to="B" priority="-1">
        <lane id="BC2B_0" index="0" speed="17.88" length="347.07" shape="1020.23,240.85,-0.32 1020.23,587.92,-0.32" />
    </edge>
    <edge id="C2CA" from="C" to="CA" priority="-1">
        <lane id="C2CA_0" index="0" speed="11.18" length="290.36" shape="671.56,295.96 961.92,295.96" />
    </edge>
    <edge id="C2CB" from="C" to="CB" priority="-1">
        <lane id="C2CB_0" index="0" speed="11.18" length="290.36" shape="662.76,290.36 662.76,0.00" />
    </edge>
    <edge id="C2CC" from="C" to="CC" priority="-1">
        <lane id="C2CC_0" index="0" speed="11.18" length="290.36" shape="657.16,299.16 366.80,299.16" />
    </edge>
    <edge id="C2TL" from="C" to="TL" priority="-1">
        <lane id="C2TL_0" index="0" speed="11.18" length="283.16" shape="665.96,304.76 665.96,587.92" />
    </edge>
    <edge id="CA2C" from="CA" to="C" priority="-1">
        <lane id="CA2C_0" index="0" speed="11.18" length="290.36" shape="961.92,299.16 671.56,299.16" />
    </edge>
    <edge id="CB2C" from="CB" to="C" priority="-1">
        <lane id="CB2C_0" index="0" speed="11.18" length="290.36" shape="665.96,0.00 665.96,290.36" />
    </edge>
    <edge id="CC2C" from="CC" to="C" priority="-1">
        <lane id="CC2C_0" index="0" speed="11.18" length="290.36" shape="366.80,295.96 657.16,295.96" />
    </edge>
    <edge id="D2DA" from="D" to="DA" priority="-1">
        <lane id="D2DA_0" index="0" speed="13.41" length="324.98" shape="330.58,587.92,0.51 330.58,262.94,0.51" />
    </edge>
    <edge id="D2DB" from="D" to="DB" priority="-1">
        <lane id="D2DB_0" index="0" speed="13.41" length="324.98" shape="324.98,596.72,0.51 -0.00,596.72,0.51" />
    </edge>
    <edge id="D2DC" from="D" to="DC" priority="-1">
        <lane id="D2DC_0" index="0" speed="13.41" length="324.98" shape="333.78,602.32,0.51 333.78,927.30,0.51" />
    </edge>
    <edge id="D2TL" from="D" to="TL" priority="-1">
        <lane id="D2TL_0" index="0" speed="13.41" length="317.78" shape="339.38,593.52,0.50 657.16,593.52,0.01" />
    </edge>
    <edge id="DA2D" from="DA" to="D" priority="-1">
        <lane id="DA2D_0" index="0" speed="13.41" length="324.98" shape="333.78,262.94,0.51 333.78,587.92,0.51" />
    </edge>
    <edge id="DB2D" from="DB" to="D" priority="-1">
        <lane id="DB2D_0" index="0" speed="13.41" length="324.98" shape="0.00,593.52,0.51 324.98,593.52,0.51" />
    </edge>
    <edge id="DC2D" from="DC" to="D" priority="-1">
        <lane id="DC2D_0" index="0" speed="13.41" length="324.98" shape="330.58,927.30,0.51 330.58,602.32,0.51" />
    </edge>
    <edge id="TL2A" from="TL" to="A" priority="-1">
        <lane id="TL2A_0" index="0" speed="11.18" length="280.55" shape="665.96,602.32 665.96,882.87" />
    </edge>
    <edge id="TL2B" from="TL" to="B" priority="-1">
        <lane id="TL2B_0" index="0" speed="17.88" length="339.87" shape="671.56,593.52,-0.01 1011.43,593.52,-0.32" />
    </edge>
    <edge id="TL2C" from="TL" to="C" priority="-1">
        <lane id="TL2C_0" index="0" speed="11.18" length="283.16" shape="662.76,587.92 662.76,304.76" />
    </edge>
    <edge id="TL2D" from="TL" to="D" priority="-1">
        <lane id="TL2D_0" index="0" speed="13.41" length="317.78" shape="657.16,596.72,0.01 339.38,596.72,0.50" />
    </edge>

    <tlLogic id="A" type="static" programID="0" offset="0">
        <phase duration="42" state="GGggrrrrGGggrrrr" />
        <phase duration="3" state="yyyyrrrryyyyrrrr" />
        <phase duration="42" state="rrrrGGggrrrrGGgg" />
        <phase duration="3" state="rrrryyyyrrrryyyy" />
    </tlLogic>
    <tlLogic id="AA" type="static" programID="0" offset="0">
        <phase duration="82" state="G" />
        <phase duration="3" state="y" />
        <phase duration="5" state="r" />
    </tlLogic>
    <tlLogic id="AB" type="static" programID="0" offset="0">
        <phase duration="82" state="G" />
        <phase duration="3" state="y" />
        <phase duration="5" state="r" />
    </tlLogic>
    <tlLogic id="AC" type="static" programID="0" offset="0">
        <phase duration="82" state="G" />
        <phase duration="3" state="y" />
        <phase duration="5" state="r" />
    </tlLogic>
    <tlLogic id="B" type="static" programID="0" offset="0">
        <phase duration="41" state="GGggrrrrGGggrrrr" />
        <phase duration="4" state="yyyyrrrryyyyrrrr" />
        <phase duration="41" state="rrrrGGggrrrrGGgg" />
        <phase duration="4" state="rrrryyyyrrrryyyy" />
    </tlLogic>
    <tlLogic id="BA" type="static" programID="0" offset="0">
        <phase duration="81" state="G" />
        <phase duration="4" state="y" />
        <phase duration="5" state="r" />
    </tlLogic>
    <tlLogic id="BB" type="static" programID="0" offset="0">
        <phase duration="81" state="G" />
        <phase duration="4" state="y" />
        <phase duration="5" state="r" />
    </tlLogic>
    <tlLogic id="BC" type="static" programID="0" offset="0">
        <phase duration="81" state="G" />
        <phase duration="4" state="y" />
        <phase duration="5" state="r" />
    </tlLogic>
    <tlLogic id="C" type="static" programID="0" offset="0">
        <phase duration="42" state="GGggrrrrGGggrrrr" />
        <phase duration="3" state="yyyyrrrryyyyrrrr" />
        <phase duration="42" state="rrrrGGggrrrrGGgg" />
        <phase duration="3" state="rrrryyyyrrrryyyy" />
    </tlLogic>
    <tlLogic id="CA" type="static" programID="0" offset="0">