<net xmlns:xsi="http://www.w3.org/2001/XMLSchema-instance" version="1.9" junctionCornerDetail="5" limitTurnSpeed="5.50" xsi:noNamespaceSchemaLocation="http://sumo.dlr.de/xsd/net_file.xsd">

    <location netOffset="625.62,618.44" convBoundary="0.00,0.00,1212.88,1237.58" origBoundary="-625.62,-618.44,587.26,619.14" projParameter="!" />

    <edge id=":A_0" function="internal">
        <lane id=":A_0_0" index="0" speed="7.33" length="11.73" shape="614.42,944.81,-3.30 614.07,940.96,-3.30 613.02,938.21,-3.30 611.27,936.56,-3.30 608.82,936.01,-3.30" />
    </edge>
    <edge id=":A_1" function="internal">
        <lane id=":A_1_0" index="0" speed="13.41" length="33.60" shape="614.42,944.81,-3.30 614.42,911.21,-3.12" />
        <lane id=":A_1_1" index="1" speed="13.41" length="33.60" shape="617.62,944.81,-3.30 617.62,911.21,-3.12" />
        <lane id=":A_1_2" index="2" speed="13.41" length="33.60" shape="620.82,944.81,-3.30 620.82,911.21,-3.12" />
        <lane id=":A_1_3" index="3" speed="13.41" length="33.60" shape="624.02,944.81,-3.30 624.02,911.21,-3.12" />
    </edge>
    <edge id=":A_5" function="internal">
        <lane id=":A_5_0" index="0" speed="10.88" length="6.03" shape="624.02,944.81,-3.30 624.72,938.83,-3.30" />
    </edge>
    <edge id=":A_6" function="internal">
        <lane id=":A_6_0" index="0" speed="3.65" length="1.44" shape="624.02,944.81,-3.30 624.82,943.61,-3.30" />
    </edge>
    <edge id=":A_25" function="internal">
        <lane id=":A_25_0" index="0" speed="10.88" length="21.12" shape="624.72,938.83,-3.30 624.97,936.76,-3.30 627.82,931.01,-3.30 632.57,927.56,-3.30 639.22,926.41,-3.30" />
    </edge>
    <edge id=":A_26" function="internal">
        <lane id=":A_26_0" index="0" speed="3.65" length="3.23" shape="624.82,943.61,-3.30 625.62,943.21,-3.30 626.42,943.61,-3.30 627.22,944.81,-3.30" />
    </edge>
    <edge id=":A_7" function="internal">
        <lane id=":A_7_0" index="0" speed="6.51" length="9.03" shape="639.22,939.21,-3.30 636.77,939.56,-3.30 635.02,940.61,-3.30 633.97,942.36,-3.30 633.62,944.81,-3.30" />
    </edge>
    <edge id=":A_8" function="internal">
        <lane id=":A_8_0" index="0" speed="13.41" length="30.62" shape="639.22,939.21,-3.30 630.13,938.71,-3.30 623.91,937.61,-3.30 617.75,936.51,-3.30 608.82,936.01,-3.30" />
        <lane id=":A_8_1" index="1" speed="13.41" length="30.62" shape="639.22,936.01,-3.30 630.13,935.51,-3.30 623.91,934.41,-3.30 617.75,933.31,-3.30 608.82,932.81,-3.30" />
        <lane id=":A_8_2" index="2" speed="13.41" length="30.62" shape="639.22,932.81,-3.30 630.13,932.31,-3.30 623.91,931.21,-3.30 617.75,930.11,-3.30 608.82,929.61,-3.30" />
    </edge>
    <edge id=":A_11" function="internal">
        <lane id=":A_11_0" index="0" speed="10.88" length="6.09" shape="639.22,929.61,-3.30 633.21,928.57,-3.26" />
    </edge>
    <edge id=":A_12" function="internal">
        <lane id=":A_12_0" index="0" speed="3.65" length="1.44" shape="639.22,929.61,-3.30 638.02,928.81,-3.30" />
    </edge>
    <edge id=":A_27" function="internal">
        <lane id=":A_27_0" index="0" speed="10.88" length="21.05" shape="633.21,928.57,-3.26 632.57,928.46,-3.26 627.82,925.01,-3.22 624.97,919.26,-3.18 624.02,911.21,-3.12" />
    </edge>
    <edge id=":A_28" function="internal">
        <lane id=":A_28_0" index="0" speed="3.65" length="3.23" shape="638.02,928.81,-3.30 637.62,928.01,-3.30 638.02,927.21,-3.30 639.22,926.41,-3.30" />
    </edge>
    <edge id=":A_13" function="internal">
        <lane id=":A_13_0" index="0" speed="7.33" length="11.73" shape="633.62,911.21,-3.12 633.97,915.06,-3.18 635.02,917.81,-3.23 636.77,919.46,-3.26 639.22,920.01,-3.30" />
    </edge>
    <edge id=":A_14" function="internal">
        <lane id=":A_14_0" index="0" speed="13.41" length="33.60" shape="633.62,911.21,-3.12 633.62,944.81,-3.30" />
        <lane id=":A_14_1" index="1" speed="13.41" length="33.60" shape="630.42,911.21,-3.12 630.42,944.81,-3.30" />
        <lane id=":A_14_2" index="2" speed="13.41" length="33.60" shape="627.22,911.21,-3.12 627.22,944.81,-3.30" />
    </edge>
    <edge id=":A_17" function="internal">
        <lane id=":A_17_0" index="0" speed="11.36" length="5.01" shape="627.22,911.21,-3.12 626.51,916.17,-3.15" />
    </edge>
    <edge id=":A_18" function="internal">
        <lane id=":A_18_0" index="0" speed="3.65" length="1.44" shape="627.22,911.21,-3.12 626.42,912.41,-3.12" />
    </edge>
    <edge id=":A_29" function="internal">
        <lane id=":A_29_0" index="0" speed="11.36" length="24.66" shape="626.51,916.17,-3.15 626.07,919.26,-3.17 622.62,925.01,-3.21 616.87,928.46,-3.25 608.82,929.61,-3.30" />
    </edge>
    <edge id=":A_30" function="internal">
        <lane id=":A_30_0" index="0" speed="3.65" length="3.23" shape="626.42,912.41,-3.12 625.62,912.81,-3.12 624.82,912.41,-3.12 624.02,911.21,-3.12" />
    </edge>
    <edge id=":A_19" function="internal">
        <lane id=":A_19_0" index="0" speed="6.51" length="9.03" shape="608.82,916.81,-3.30 611.27,916.46,-3.25 613.02,915.41,-3.21 614.07,913.66,-3.17 614.42,911.21,-3.12" />
    </edge>
    <edge id=":A_20" function="internal">
        <lane id=":A_20_0" index="0" speed="13.41" length="30.62" shape="608.82,916.81,-3.30 617.91,917.31,-3.30 624.12,918.41,-3.30 630.29,919.51,-3.30 639.22,920.01,-3.30" />
        <lane id=":A_20_1" index="1" speed="13.41" length="30.62" shape="608.82,920.01,-3.30 617.91,920.51,-3.30 624.12,921.61,-3.30 630.29,922.71,-3.30 639.22,923.21,-3.30" />
        <lane id=":A_20_2" index="2" speed="13.41" length="30.62" shape="608.82,923.21,-3.30 617.91,923.71,-3.30 624.12,924.81,-3.30 630.29,925.91,-3.30 639.22,926.41,-3.30" />
    </edge>
    <edge id=":A_23" function="internal">
        <lane id=":A_23_0" index="0" speed="11.36" length="7.98" shape="608.82,926.41,-3.30 616.72,927.54,-3.30" />
    </edge>
    <edge id=":A_24" function="internal">
        <lane id=":A_24_0" index="0" speed="3.65" length="1.44" shape="608.82,926.41,-3.30 610.02,927.21,-3.30" />
    </edge>
    <edge id=":A_31" function="internal">
        <lane id=":A_31_0" index="0" speed="11.36" length="21.69" shape="616.72,927.54,-3.30 616.87,927.56,-3.30 622.62,931.01,-3.30 626.07,936.76,-3.30 627.22,944.81,-3.30" />
    </edge>
    <edge id=":A_32" function="internal">
        <lane id=":A_32_0" index="0" speed="3.65" length="3.23" shape="610.02,927.21,-3.30 610.42,928.01,-3.30 610.02,928.81,-3.30 608.82,929.61,-3.30" />
    </edge>
    <edge id=":AA_0" function="internal">
        <lane id=":AA_0_0" index="0" speed="3.65" length="4.67" shape="316.05,929.61,-3.30 314.85,928.81,-3.30 314.45,928.01,-3.30 314.85,927.21,-3.30 316.05,926.41,-3.30" />
    </edge>
    <edge id=":AB_0" function="internal">
        <lane id=":AB_0_0" index="0" speed="3.65" length="4.67" shape="627.22,1237.58,-3.30 626.42,1238.78,-3.30 625.62,1239.18,-3.30 624.82,1238.78,-3.30 624.02,1237.58,-3.30" />
    </edge>
    <edge id=":AC_0" function="internal">
        <lane id=":AC_0_0" index="0" speed="3.65" length="4.67" shape="935.19,926.41,-3.30 936.39,927.21,-3.30 936.79,928.01,-3.30 936.39,928.81,-3.30 935.19,929.61,-3.30" />
    </edge>
    <edge id=":B_0" function="internal">
        <lane id=":B_0_0" index="0" speed="6.51" length="9.03" shape="914.45,628.84,-3.67 914.10,626.39,-3.63 913.05,624.64,-3.60 911.30,623.59,-3.58 908.85,623.24,-3.54" />
    </edge>
    <edge id=":B_1" function="internal">
        <lane id=":B_1_0" index="0" speed="8.94" length="17.95" shape="914.45,628.84,-3.67 914.95,623.02,-3.67 916.05,618.56,-3.67 917.15,614.84,-3.67 917.65,611.24,-3.67" />
    </edge>
    <edge id=":B_2" function="internal">
        <lane id=":B_2_0" index="0" speed="8.94" length="8.24" shape="917.65,628.84,-3.67 918.40,623.59,-3.67 919.91,621.07,-3.67" />
    </edge>
    <edge id=":B_3" function="internal">
        <lane id=":B_3_0" index="0" speed="3.65" length="1.44" shape="917.65,628.84,-3.67 918.45,627.64,-3.67" />
    </edge>
    <edge id=":B_17" function="internal">
        <lane id=":B_17_0" index="0" speed="8.94" length="11.12" shape="919.91,621.07,-3.67 920.65,619.84,-3.67 924.40,617.59,-3.67 929.65,616.84,-3.67" />
    </edge>
    <edge id=":B_18" function="internal">
        <lane id=":B_18_0" index="0" speed="3.65" length="3.23" shape="918.45,627.64,-3.67 919.25,627.24,-3.67 920.05,627.64,-3.67 920.85,628.84,-3.67" />
    </edge>
    <edge id=":B_4" function="internal">
        <lane id=":B_4_0" index="0" speed="7.33" length="11.73" shape="929.65,623.24,-3.67 925.80,623.59,-3.67 923.05,624.64,-3.67 921.40,626.39,-3.67 920.85,628.84,-3.67" />
    </edge>
    <edge id=":B_5" function="internal">
        <lane id=":B_5_0" index="0" speed="8.94" length="20.80" shape="929.65,623.24,-3.67 908.85,623.24,-3.54" />
        <lane id=":B_5_1" index="1" speed="8.94" length="20.80" shape="929.65,620.04,-3.67 908.85,620.04,-3.54" />
    </edge>
    <edge id=":B_7" function="internal">
        <lane id=":B_7_0" index="0" speed="8.67" length="5.56" shape="929.65,620.04,-3.67 924.40,619.49,-3.67 924.14,619.38,-3.67" />
    </edge>
    <edge id=":B_8" function="internal">
        <lane id=":B_8_0" index="0" speed="3.65" length="1.44" shape="929.65,620.04,-3.67 928.45,619.24,-3.67" />
    </edge>
    <edge id=":B_19" function="internal">
        <lane id=":B_19_0" index="0" speed="8.67" length="11.29" shape="924.14,619.38,-3.67 920.65,617.84,-3.67 918.40,615.09,-3.67 917.65,611.24,-3.67" />
    </edge>
    <edge id=":B_20" function="internal">
        <lane id=":B_20_0" index="0" speed="3.65" length="3.23" shape="928.45,619.24,-3.67 928.05,618.44,-3.67 928.45,617.64,-3.67 929.65,616.84,-3.67" />
    </edge>
    <edge id=":B_9" function="internal">
        <lane id=":B_9_0" index="0" speed="6.51" length="9.03" shape="924.05,611.24,-3.67 924.40,613.69,-3.67 925.45,615.44,-3.67 927.20,616.49,-3.67 929.65,616.84,-3.67" />
    </edge>
    <edge id=":B_10" function="internal">
        <lane id=":B_10_0" index="0" speed="8.94" length="17.95" shape="924.05,611.24,-3.67 923.55,617.06,-3.67 922.45,621.52,-3.67 921.35,625.24,-3.67 920.85,628.84,-3.67" />
    </edge>
    <edge id=":B_11" function="internal">
        <lane id=":B_11_0" index="0" speed="8.67" length="4.68" shape="920.85,611.24,-3.67 920.10,615.09,-3.64 919.62,615.68,-3.63" />
    </edge>
    <edge id=":B_12" function="internal">
        <lane id=":B_12_0" index="0" speed="3.65" length="1.44" shape="920.85,611.24,-3.67 920.05,612.44,-3.67" />
    </edge>
    <edge id=":B_21" function="internal">
        <lane id=":B_21_0" index="0" speed="8.67" length="12.17" shape="919.62,615.68,-3.63 917.85,617.84,-3.61 914.10,619.49,-3.58 908.85,620.04,-3.54" />
    </edge>
    <edge id=":B_22" function="internal">
        <lane id=":B_22_0" index="0" speed="3.65" length="3.23" shape="920.05,612.44,-3.67 919.25,612.84,-3.67 918.45,612.44,-3.67 917.65,611.24,-3.67" />
    </edge>
    <edge id=":B_13" function="internal">
        <lane id=":B_13_0" index="0" speed="7.33" length="11.73" shape="908.85,616.84,-3.53 912.70,616.49,-3.58 915.45,615.44,-3.61 917.10,613.69,-3.64 917.65,611.24,-3.67" />
    </edge>
    <edge id=":B_14" function="internal">
        <lane id=":B_14_0" index="0" speed="8.94" length="20.80" shape="908.85,616.84,-3.53 929.65,616.84,-3.67" />
    </edge>
    <edge id=":B_15" function="internal">
        <lane id=":B_15_0" index="0" speed="8.94" length="5.01" shape="908.85,616.84,-3.53 913.81,617.55,-3.57" />
    </edge>
    <edge id=":B_16" function="internal">
        <lane id=":B_16_0" index="0" speed="3.65" length="1.44" shape="908.85,616.84,-3.53 910.05,617.64,-3.53" />
    </edge>
    <edge id=":B_23" function="internal">
        <lane id=":B_23_0" index="0" speed="8.94" length="14.34" shape="913.81,617.55,-3.57 914.10,617.59,-3.57 917.85,619.84,-3.60 920.10,623.59,-3.63 920.85,628.84,-3.67" />
    </edge>
    <edge id=":B_24" function="internal">
        <lane id=":B_24_0" index="0" speed="3.65" length="3.23" shape="910.05,617.64,-3.53 910.45,618.44,-3.54 910.05,619.24,-3.54 908.85,620.04,-3.54" />
    </edge>
    <edge id=":BA_0" function="internal">
        <lane id=":BA_0_0" index="0" speed="3.65" length="4.67" shape="920.85,912.07,-3.67 920.05,913.27,-3.67 919.25,913.67,-3.67 918.45,913.27,-3.67 917.65,912.07,-3.67" />
    </edge>
    <edge id=":BB_0" function="internal">
        <lane id=":BB_0_0" index="0" speed="3.65" length="4.67" shape="1212.88,616.84,-3.67 1214.08,617.64,-3.67 1214.48,618.44,-3.67 1214.08,619.24,-3.67 1212.88,620.04,-3.67" />
    </edge>
    <edge id=":BC_0" function="internal">
        <lane id=":BC_0_0" index="0" speed="3.65" length="4.67" shape="917.65,324.81,-3.67 918.45,323.61,-3.67 919.25,323.21,-3.67 920.05,323.61,-3.67 920.85,324.81,-3.67" />
    </edge>
    <edge id=":C_0" function="internal">
        <lane id=":C_0_0" index="0" speed="7.33" length="11.73" shape="617.62,326.02,2.67 617.27,322.17,2.72 616.22,319.42,2.76 614.47,317.77,2.79 612.02,317.22,2.83" />
    </edge>
    <edge id=":C_1" function="internal">
        <lane id=":C_1_0" index="0" speed="13.41" length="33.60" shape="617.62,326.02,2.67 617.62,292.42,2.83" />
        <lane id=":C_1_1" index="1" speed="13.41" length="33.60" shape="620.82,326.02,2.67 620.82,292.42,2.83" />
        <lane id=":C_1_2" index="2" speed="13.41" length="33.60" shape="624.02,326.02,2.67 624.02,292.42,2.83" />
    </edge>
    <edge id=":C_4" function="internal">
        <lane id=":C_4_0" index="0" speed="11.36" length="5.01" shape="624.02,326.02,2.67 624.73,321.06,2.70" />
    </edge>
    <edge id=":C_5" function="internal">
        <lane id=":C_5_0" index="0" speed="3.65" length="1.44" shape="624.02,326.02,2.67 624.82,324.82,2.67" />
    </edge>
    <edge id=":C_25" function="internal">
        <lane id=":C_25_0" index="0" speed="11.36" length="24.66" shape="624.73,321.06,2.70 625.17,317.97,2.72 628.62,312.22,2.75 634.37,308.77,2.79 642.42,307.62,2.83" />
    </edge>
    <edge id=":C_26" function="internal">
        <lane id=":C_26_0" index="0" speed="3.65" length="3.23" shape="624.82,324.82,2.67 625.62,324.42,2.67 626.42,324.82,2.67 627.22,326.02,2.67" />
    </edge>
    <edge id=":C_6" function="internal">
        <lane id=":C_6_0" index="0" speed="6.51" length="9.03" shape="642.42,320.42,2.83 639.97,320.77,2.79 638.22,321.82,2.75 637.17,323.57,2.72 636.82,326.02,2.67" />
    </edge>
    <edge id=":C_7" function="internal">
        <lane id=":C_7_0" index="0" speed="13.41" length="30.62" shape="642.42,320.42,2.83 633.33,319.92,2.83 627.11,318.82,2.83 620.95,317.72,2.83 612.02,317.22,2.83" />
        <lane id=":C_7_1" index="1" speed="13.41" length="30.62" shape="642.42,317.22,2.83 633.33,316.72,2.83 627.11,315.62,2.83 620.95,314.52,2.83 612.02,314.02,2.83" />
        <lane id=":C_7_2" index="2" speed="13.41" length="30.62" shape="642.42,314.02,2.83 633.33,313.52,2.83 627.11,312.42,2.83 620.95,311.32,2.83 612.02,310.82,2.83" />
    </edge>
    <edge id=":C_10" function="internal">
        <lane id=":C_10_0" index="0" speed="11.36" length="7.98" shape="642.42,310.82,2.83 634.51,309.69,2.83" />
    </edge>
    <edge id=":C_11" function="internal">
        <lane id=":C_11_0" index="0" speed="3.65" length="1.44" shape="642.42,310.82,2.83 641.22,310.02,2.83" />
    </edge>
    <edge id=":C_27" function="internal">
        <lane id=":C_27_0" index="0" speed="11.36" length="21.69" shape="634.51,309.69,2.83 634.37,309.67,2.83 628.62,306.22,2.83 625.17,300.47,2.83 624.02,292.42,2.83" />
    </edge>
    <edge id=":C_28" function="internal">
        <lane id=":C_28_0" index="0" speed="3.65" length="3.23" shape="641.22,310.02,2.83 640.82,309.22,2.83 641.22,308.42,2.83 642.42,307.62,2.83" />
    </edge>
    <edge id=":C_12" function="internal">
        <lane id=":C_12_0" index="0" speed="7.33" length="11.73" shape="636.82,292.42,2.83 637.17,296.27,2.83 638.22,299.02,2.83 639.97,300.67,2.83 642.42,301.22,2.83" />
    </edge>
    <edge id=":C_13" function="internal">
        <lane id=":C_13_0" index="0" speed="13.41" length="33.60" shape="636.82,292.42,2.83 636.82,326.02,2.67" />
        <lane id=":C_13_1" index="1" speed="13.41" length="33.60" shape="633.62,292.42,2.83 633.62,326.02,2.67" />
        <lane id=":C_13_2" index="2" speed="13.41" length="33.60" shape="630.42,292.42,2.83 630.42,326.02,2.67" />
        <lane id=":C_13_3" index="3" speed="13.41" length="33.60" shape="627.22,292.42,2.83 627.22,326.02,2.67" />
    </edge>
    <edge id=":C_17" function="internal">
        <lane id=":C_17_0" index="0" speed="10.88" length="6.03" shape="627.22,292.42,2.83 626.51,298.40,2.83" />
    </edge>
    <edge id=":C_18" function="internal">
        <lane id=":C_18_0" index="0" speed="3.65" length="1.44" shape="627.22,292.42,2.83 626.42,293.62,2.83" />
    </edge>
    <edge id=":C_29" function="internal">
        <lane id=":C_29_0" index="0" speed="10.88" length="21.12" shape="626.51,298.40,2.83 626.27,300.47,2.83 623.42,306.22,2.83 618.67,309.67,2.83 612.02,310.82,2.83" />
    </edge>
    <edge id=":C_30" function="internal">
        <lane id=":C_30_0" index="0" speed="3.65" length="3.23" shape="626.42,293.62,2.83 625.62,294.02,2.83 624.82,293.62,2.83 624.02,292.42,2.83" />
    </edge>
    <edge id=":C_19" function="internal">
        <lane id=":C_19_0" index="0" speed="6.51" length="9.03" shape="612.02,298.02,2.83 614.47,297.67,2.83 616.22,296.62,2.83 617.27,294.87,2.83 617.62,292.42,2.83" />
    </edge>
    <edge id=":C_20" function="internal">
        <lane id=":C_20_0" index="0" speed="13.41" length="30.62" shape="612.02,298.02,2.83 621.11,298.52,2.83 627.32,299.62,2.83 633.49,300.72,2.83 642.42,301.22,2.83" />
        <lane id=":C_20_1" index="1" speed="13.41" length="30.62" shape="612.02,301.22,2.83 621.11,301.72,2.83 627.32,302.82,2.83 633.49,303.92,2.83 642.42,304.42,2.83" />
        <lane id=":C_20_2" index="2" speed="13.41" length="30.62" shape="612.02,304.42,2.83 621.11,304.92,2.83 627.32,306.02,2.83 633.49,307.12,2.83 642.42,307.62,2.83" />
    </edge>
    <edge id=":C_23" function="internal">
        <lane id=":C_23_0" index="0" speed="10.88" length="6.09" shape="612.02,307.62,2.83 618.02,308.66,2.79" />
    </edge>
    <edge id=":C_24" function="internal">
        <lane id=":C_24_0" index="0" speed="3.65" length="1.44" shape="612.02,307.62,2.83 613.22,308.42,2.83" />
    </edge>
    <edge id=":C_31" function="internal">
        <lane id=":C_31_0" index="0" speed="10.88" length="21.05" shape="618.02,308.66,2.79 618.67,308.77,2.79 623.42,312.22,2.76 626.27,317.97,2.72 627.22,326.02,2.67" />
    </edge>
    <edge id=":C_32" function="internal">
        <lane id=":C_32_0" index="0" speed="3.65" length="3.23" shape="613.22,308.42,2.83 613.62,309.22,2.83 613.22,310.02,2.83 612.02,310.82,2.83" />
    </edge>
    <edge id=":CA_0" function="internal">
        <lane id=":CA_0_0" index="0" speed="3.65" length="4.67" shape="934.84,307.62,2.83 936.04,308.42,2.83 936.44,309.22,2.83 936.04,310.02,2.83 934.84,310.82,2.83" />
    </edge>
    <edge id=":CB_0" function="internal">
        <lane id=":CB_0_0" index="0" speed="3.65" length="4.67" shape="624.02,0.00,2.83 624.82,-1.20,2.83 625.62,-1.60,2.83 626.42,-1.20,2.83 627.22,0.00,2.83" />
    </edge>
    <edge id=":CC_0" function="internal">
        <lane id=":CC_0_0" index="0" speed="3.65" length="4.67" shape="316.40,310.82,2.83 315.20,310.02,2.83 314.80,309.22,2.83 315.20,308.42,2.83 316.40,307.62,2.83" />
    </edge>
    <edge id=":D_0" function="internal">
        <lane id=":D_0_0" index="0" speed="6.51" length="9.03" shape="308.01,628.84,4.77 307.66,626.39,4.77 306.61,624.64,4.77 304.86,623.59,4.77 302.41,623.24,4.77" />
    </edge>
    <edge id=":D_1" function="internal">
        <lane id=":D_1_0" index="0" speed="8.94" length="20.80" shape="308.01,628.84,4.77 308.01,608.04,4.77" />
        <lane id=":D_1_1" index="1" speed="8.94" length="20.80" shape="311.21,628.84,4.77 311.21,608.04,4.77" />
    </edge>
    <edge id=":D_3" function="internal">
        <lane id=":D_3_0" index="0" speed="8.94" length="5.01" shape="311.21,628.84,4.77 311.92,623.88,4.73" />
    </edge>
    <edge id=":D_4" function="internal">
        <lane id=":D_4_0" index="0" speed="3.65" length="1.44" shape="311.21,628.84,4.77 312.01,627.64,4.77" />
    </edge>
    <edge id=":D_20" function="internal">
        <lane id=":D_20_0" index="0" speed="8.94" length="14.34" shape="311.92,623.88,4.73 311.96,623.59,4.72 314.21,619.84,4.69 317.96,617.59,4.65 323.21,616.84,4.61" />
    </edge>
    <edge id=":D_21" function="internal">
        <lane id=":D_21_0" index="0" speed="3.65" length="3.23" shape="312.01,627.64,4.77 312.81,627.24,4.77 313.61,627.64,4.77 314.41,628.84,4.77" />
    </edge>
    <edge id=":D_5" function="internal">
        <lane id=":D_5_0" index="0" speed="6.51" length="9.03" shape="323.21,623.24,4.60 320.76,623.59,4.65 319.01,624.64,4.68 317.96,626.39,4.72 317.61,628.84,4.77" />
    </edge>
    <edge id=":D_6" function="internal">
        <lane id=":D_6_0" index="0" speed="8.94" length="20.80" shape="323.21,623.24,4.60 302.41,623.24,4.77" />
        <lane id=":D_6_1" index="1" speed="8.94" length="20.80" shape="323.21,620.04,4.60 302.41,620.04,4.77" />
    </edge>
    <edge id=":D_8" function="internal">
        <lane id=":D_8_0" index="0" speed="8.94" length="5.01" shape="323.21,620.04,4.60 318.25,619.33,4.64" />
    </edge>
    <edge id=":D_9" function="internal">
        <lane id=":D_9_0" index="0" speed="3.65" length="1.44" shape="323.21,620.04,4.60 322.01,619.24,4.60" />
    </edge>
    <edge id=":D_22" function="internal">
        <lane id=":D_22_0" index="0" speed="8.94" length="14.34" shape="318.25,619.33,4.64 317.96,619.29,4.65 314.21,617.04,4.68 311.96,613.29,4.72 311.21,608.04,4.77" />
    </edge>
    <edge id=":D_23" function="internal">
        <lane id=":D_23_0" index="0" speed="3.65" length="3.23" shape="322.01,619.24,4.60 321.61,618.44,4.60 322.01,617.64,4.61 323.21,616.84,4.61" />
    </edge>
    <edge id=":D_10" function="internal">
        <lane id=":D_10_0" index="0" speed="6.51" length="9.03" shape="317.61,608.04,4.77 317.96,610.49,4.72 319.01,612.24,4.69 320.76,613.29,4.65 323.21,613.64,4.61" />
    </edge>
    <edge id=":D_11" function="internal">
        <lane id=":D_11_0" index="0" speed="8.94" length="20.80" shape="317.61,608.04,4.77 317.61,628.84,4.77" />
        <lane id=":D_11_1" index="1" speed="8.94" length="20.80" shape="314.41,608.04,4.77 314.41,628.84,4.77" />
    </edge>
    <edge id=":D_13" function="internal">
        <lane id=":D_13_0" index="0" speed="8.94" length="5.01" shape="314.41,608.04,4.77 313.70,613.00,4.77" />
    </edge>
    <edge id=":D_14" function="internal">
        <lane id=":D_14_0" index="0" speed="3.65" length="1.44" shape="314.41,608.04,4.77 313.61,609.24,4.77" />
    </edge>
    <edge id=":D_24" function="internal">
        <lane id=":D_24_0" index="0" speed="8.94" length="14.34" shape="313.70,613.00,4.77 313.66,613.29,4.77 311.41,617.04,4.77 307.66,619.29,4.77 302.41,620.04,4.77" />
    </edge>
    <edge id=":D_25" function="internal">
        <lane id=":D_25_0" index="0" speed="3.65" length="3.23" shape="313.61,609.24,4.77 312.81,609.64,4.77 312.01,609.24,4.77 311.21,608.04,4.77" />
    </edge>
    <edge id=":D_15" function="internal">
        <lane id=":D_15_0" index="0" speed="6.51" length="9.03" shape="302.41,613.64,4.77 304.86,613.29,4.77 306.61,612.24,4.77 307.66,610.49,4.77 308.01,608.04,4.77" />
    </edge>
    <edge id=":D_16" function="internal">
        <lane id=":D_16_0" index="0" speed="8.94" length="20.80" shape="302.41,613.64,4.77 323.21,613.64,4.61" />
        <lane id=":D_16_1" index="1" speed="8.94" length="20.80" shape="302.41,616.84,4.77 323.21,616.84,4.61" />
    </edge>
    <edge id=":D_18" function="internal">
        <lane id=":D_18_0" index="0" speed="8.94" length="5.01" shape="302.41,616.84,4.77 307.37,617.55,4.77" />
    </edge>
    <edge id=":D_19" function="internal">
        <lane id=":D_19_0" index="0" speed="3.65" length="1.44" shape="302.41,616.84,4.77 303.61,617.64,4.77" />
    </edge>
    <edge id=":D_26" function="internal">
        <lane id=":D_26_0" index="0" speed="8.94" length="14.34" shape="307.37,617.55,4.77 307.66,617.59,4.77 311.41,619.84,4.77 313.66,623.59,4.77 314.41,628.84,4.77" />
    </edge>
    <edge id=":D_27" function="internal">
        <lane id=":D_27_0" index="0" speed="3.65" length="3.23" shape="303.61,617.64,4.77 304.01,618.44,4.77 303.61,619.24,4.77 302.41,620.04,4.77" />
    </edge>
    <edge id=":DA_0" function="internal">
        <lane id=":DA_0_0" index="0" speed="3.65" length="4.67" shape="311.21,305.63,4.77 312.01,304.43,4.77 312.81,304.03,4.77 313.61,304.43,4.77 314.41,305.63,4.77" />
    </edge>
    <edge id=":DB_0" function="internal">
        <lane id=":DB_0_0" index="0" speed="3.65" length="4.67" shape="-0.00,620.04,4.77 -1.20,619.24,4.77 -1.60,618.44,4.77 -1.20,617.64,4.77 -0.00,616.84,4.77" />
    </edge>
    <edge id=":DC_0" function="internal">
        <lane id=":DC_0_0" index="0" speed="3.65" length="4.67" shape="314.41,931.25,4.77 313.61,932.45,4.77 312.81,932.85,4.77 312.01,932.45,4.77 311.21,931.25,4.77" />
    </edge>
    <edge id=":TL_0" function="internal">
        <lane id=":TL_0_0" index="0" speed="6.51" length="9.03" shape="614.42,628.84,-0.11 614.07,626.39,-0.08 613.02,624.64,-0.06 611.27,623.59,-0.03 608.82,623.24" />
    </edge>
    <edge id=":TL_1" function="internal">
        <lane id=":TL_1_0" index="0" speed="13.41" length="21.13" shape="614.42,628.84,-0.11 614.92,622.63,-0.05 616.02,618.44,-0.01 617.12,614.25,0.03 617.62,608.04,0.10" />
        <lane id=":TL_1_1" index="1" speed="13.41" length="21.13" shape="617.62,628.84,-0.11 618.12,622.63,-0.05 619.22,618.44,-0.01 620.32,614.25,0.03 620.82,608.04,0.10" />
        <lane id=":TL_1_2" index="2" speed="13.41" length="21.13" shape="620.82,628.84,-0.11 621.32,622.63,-0.05 622.42,618.44,-0.01 623.52,614.25,0.03 624.02,608.04,0.10" />
    </edge>
    <edge id=":TL_4" function="internal">
        <lane id=":TL_4_0" index="0" speed="10.41" length="5.14" shape="624.02,628.84,-0.11 625.12,623.82,-0.09" />
    </edge>
    <edge id=":TL_16" function="internal">
        <lane id=":TL_16_0" index="0" speed="10.41" length="19.59" shape="625.12,623.82,-0.09 625.17,623.59,-0.09 628.62,619.84,-0.06 634.37,617.59,-0.04 642.42,616.84" />
    </edge>
    <edge id=":TL_5" function="internal">
        <lane id=":TL_5_0" index="0" speed="7.33" length="11.73" shape="642.42,623.24 638.57,623.59,-0.04 635.82,624.64,-0.06 634.17,626.39,-0.09 633.62,628.84,-0.11" />
    </edge>
    <edge id=":TL_6" function="internal">
        <lane id=":TL_6_0" index="0" speed="8.94" length="33.60" shape="642.42,623.24 608.82,623.24" />
    </edge>
    <edge id=":TL_7" function="internal">
        <lane id=":TL_7_0" index="0" speed="10.41" length="10.70" shape="642.42,620.04 634.37,619.29,0.03 631.94,618.34,0.04" />
    </edge>
    <edge id=":TL_17" function="internal">
        <lane id=":TL_17_0" index="0" speed="10.41" length="14.03" shape="631.94,618.34,0.04 628.62,617.04,0.05 625.17,613.29,0.07 624.02,608.04,0.10" />
    </edge>
    <edge id=":TL_8" function="internal">
        <lane id=":TL_8_0" index="0" speed="7.33" length="11.73" shape="636.82,608.04,0.10 637.17,611.89,0.06 638.22,614.64,0.04 639.97,616.29,0.02 642.42,616.84" />
    </edge>
    <edge id=":TL_9" function="internal">
        <lane id=":TL_9_0" index="0" speed="13.41" length="21.13" shape="636.82,608.04,0.10 636.32,614.25,0.03 635.22,618.44,-0.01 634.12,622.63,-0.05 633.62,628.84,-0.11" />
        <lane id=":TL_9_1" index="1" speed="13.41" length="21.13" shape="633.62,608.04,0.10 633.12,614.25,0.03 632.02,618.44,-0.01 630.92,622.63,-0.05 630.42,628.84,-0.11" />
        <lane id=":TL_9_2" index="2" speed="13.41" length="21.13" shape="630.42,608.04,0.10 629.92,614.25,0.03 628.82,618.44,-0.01 627.72,622.63,-0.05 627.22,628.84,-0.11" />
    </edge>
    <edge id=":TL_12" function="internal">
        <lane id=":TL_12_0" index="0" speed="10.41" length="5.14" shape="627.22,608.04,0.10 626.12,613.06,0.08" />
    </edge>
    <edge id=":TL_18" function="internal">
        <lane id=":TL_18_0" index="0" speed="10.41" length="19.59" shape="626.12,613.06,0.08 626.07,613.29,0.07 622.62,617.04,0.05 616.87,619.29,0.03 608.82,620.04" />
    </edge>
    <edge id=":TL_13" function="internal">
        <lane id=":TL_13_0" index="0" speed="7.33" length="11.73" shape="608.82,613.64 612.67,613.29,0.03 615.42,612.24,0.06 617.07,610.49,0.07 617.62,608.04,0.10" />
    </edge>
    <edge id=":TL_14" function="internal">
        <lane id=":TL_14_0" index="0" speed="8.94" length="33.76" shape="608.82,613.64 617.58,614.14 627.49,615.24 636.46,616.34 642.42,616.84" />
    </edge>
    <edge id=":TL_15" function="internal">
        <lane id=":TL_15_0" index="0" speed="10.41" length="15.21" shape="608.82,616.84 616.87,617.59,-0.04 622.62,619.84,-0.06 623.26,620.54,-0.07" />
    </edge>
    <edge id=":TL_19" function="internal">
        <lane id=":TL_19_0" index="0" speed="10.41" length="9.52" shape="623.26,620.54,-0.07 626.07,623.59,-0.09 627.22,628.84,-0.11" />
    </edge>

    <edge id="A2AA" from="A" to="AA" priority="-1">
        <lane id="A2AA_0" index="0" speed="13.41" length="292.77" shape="608.82,936.01,-3.30 316.05,936.01,-3.30" />
        <lane id="A2AA_1" index="1" speed="13.41" length="292.77" shape="608.82,932.81,-3.30 316.05,932.81,-3.30" />
        <lane id="A2AA_2" index="2" speed="13.41" length="292.77" shape="608.82,929.61,-3.30 316.05,929.61,-3.30" />
    </edge>
    <edge id="A2AB" from="A" to="AB" priority="-1">
        <lane id="A2AB_0" index="0" speed="13.41" length="292.77" shape="633.62,944.81,-3.30 633.62,1237.58,-3.30" />
        <lane id="A2AB_1" index="1" speed="13.41" length="292.77" shape="630.42,944.81,-3.30 630.42,1237.58,-3.30" />
        <lane id="A2AB_2" index="2" speed="13.41" length="292.77" shape="627.22,944.81,-3.30 627.22,1237.58,-3.30" />
    </edge>