<net xmlns:xsi="http://www.w3.org/2001/XMLSchema-instance" version="1.9" junctionCornerDetail="5" limitTurnSpeed="5.50" xsi:noNamespaceSchemaLocation="http://sumo.dlr.de/xsd/net_file.xsd">

    <location netOffset="639.07,325.69" convBoundary="0.00,0.00,1153.65,645.28" origBoundary="-639.07,-325.69,514.57,319.58" projParameter="!" />

    <edge id=":A_0" function="internal">
        <lane id=":A_0_0" index="0" speed="6.51" length="9.03" shape="634.27,495.88,4.63 633.92,493.43,4.63 632.87,491.68,4.63 631.12,490.63,4.63 628.67,490.28,4.63" />
    </edge>
    <edge id=":A_1" function="internal">
        <lane id=":A_1_0" index="0" speed="11.18" length="20.80" shape="634.27,495.88,4.63 634.27,475.08,4.63" />
        <lane id=":A_1_1" index="1" speed="11.18" length="20.80" shape="637.47,495.88,4.63 637.47,475.08,4.63" />
    </edge>
    <edge id=":A_3" function="internal">
        <lane id=":A_3_0" index="0" speed="9.26" length="5.01" shape="637.47,495.88,4.63 638.18,490.92,4.63" />
    </edge>
    <edge id=":A_4" function="internal">
        <lane id=":A_4_0" index="0" speed="3.65" length="1.44" shape="637.47,495.88,4.63 638.27,494.68,4.63" />
    </edge>
    <edge id=":A_20" function="internal">
        <lane id=":A_20_0" index="0" speed="9.26" length="14.34" shape="638.18,490.92,4.63 638.22,490.63,4.63 640.47,486.88,4.63 644.22,484.63,4.63 649.47,483.88,4.63" />
    </edge>
    <edge id=":A_21" function="internal">
        <lane id=":A_21_0" index="0" speed="3.65" length="3.23" shape="638.27,494.68,4.63 639.07,494.28,4.63 639.87,494.68,4.63 640.67,495.88,4.63" />
    </edge>
    <edge id=":A_5" function="internal">
        <lane id=":A_5_0" index="0" speed="6.51" length="9.03" shape="649.47,490.28,4.63 647.02,490.63,4.63 645.27,491.68,4.63 644.22,493.43,4.63 643.87,495.88,4.63" />
    </edge>
    <edge id=":A_6" function="internal">
        <lane id=":A_6_0" index="0" speed="11.18" length="20.80" shape="649.47,490.28,4.63 628.67,490.28,4.63" />
        <lane id=":A_6_1" index="1" speed="11.18" length="20.80" shape="649.47,487.08,4.63 628.67,487.08,4.63" />
    </edge>
    <edge id=":A_8" function="internal">
        <lane id=":A_8_0" index="0" speed="9.26" length="5.01" shape="649.47,487.08,4.63 644.51,486.37,4.63" />
    </edge>
    <edge id=":A_9" function="internal">
        <lane id=":A_9_0" index="0" speed="3.65" length="1.44" shape="649.47,487.08,4.63 648.27,486.28,4.63" />
    </edge>
    <edge id=":A_22" function="internal">
        <lane id=":A_22_0" index="0" speed="9.26" length="14.34" shape="644.51,486.37,4.63 644.22,486.33,4.63 640.47,484.08,4.63 638.22,480.33,4.63 637.47,475.08,4.63" />
    </edge>
    <edge id=":A_23" function="internal">
        <lane id=":A_23_0" index="0" speed="3.65" length="3.23" shape="648.27,486.28,4.63 647.87,485.48,4.63 648.27,484.68,4.63 649.47,483.88,4.63" />
    </edge>
    <edge id=":A_10" function="internal">
        <lane id=":A_10_0" index="0" speed="6.51" length="9.03" shape="643.87,475.08,4.63 644.22,477.53,4.63 645.27,479.28,4.63 647.02,480.33,4.63 649.47,480.68,4.63" />
    </edge>
    <edge id=":A_11" function="internal">
        <lane id=":A_11_0" index="0" speed="11.18" length="20.80" shape="643.87,475.08,4.63 643.87,495.88,4.63" />
        <lane id=":A_11_1" index="1" speed="11.18" length="20.80" shape="640.67,475.08,4.63 640.67,495.88,4.63" />
    </edge>
    <edge id=":A_13" function="internal">
        <lane id=":A_13_0" index="0" speed="9.26" length="5.01" shape="640.67,475.08,4.63 639.96,480.05,4.63" />
    </edge>
    <edge id=":A_14" function="internal">
        <lane id=":A_14_0" index="0" speed="3.65" length="1.44" shape="640.67,475.08,4.63 639.87,476.28,4.63" />
    </edge>
    <edge id=":A_24" function="internal">
        <lane id=":A_24_0" index="0" speed="9.26" length="14.34" shape="639.96,480.05,4.63 639.92,480.33,4.63 637.67,484.08,4.63 633.92,486.33,4.63 628.67,487.08,4.63" />
    </edge>
    <edge id=":A_25" function="internal">
        <lane id=":A_25_0" index="0" speed="3.65" length="3.23" shape="639.87,476.28,4.63 639.07,476.68,4.63 638.27,476.28,4.63 637.47,475.08,4.63" />
    </edge>
    <edge id=":A_15" function="internal">
        <lane id=":A_15_0" index="0" speed="6.51" length="9.03" shape="628.67,480.68,4.63 631.12,480.33,4.63 632.87,479.28,4.63 633.92,477.53,4.63 634.27,475.08,4.63" />
    </edge>
    <edge id=":A_16" function="internal">
        <lane id=":A_16_0" index="0" speed="11.18" length="20.80" shape="628.67,480.68,4.63 649.47,480.68,4.63" />
        <lane id=":A_16_1" index="1" speed="11.18" length="20.80" shape="628.67,483.88,4.63 649.47,483.88,4.63" />
    </edge>
    <edge id=":A_18" function="internal">
        <lane id=":A_18_0" index="0" speed="9.26" length="5.01" shape="628.67,483.88,4.63 633.64,484.59,4.63" />
    </edge>
    <edge id=":A_19" function="internal">
        <lane id=":A_19_0" index="0" speed="3.65" length="1.44" shape="628.67,483.88,4.63 629.87,484.68,4.63" />
    </edge>
    <edge id=":A_26" function="internal">
        <lane id=":A_26_0" index="0" speed="9.26" length="14.34" shape="633.64,484.59,4.63 633.92,484.63,4.63 637.67,486.88,4.63 639.92,490.63,4.63 640.67,495.88,4.63" />
    </edge>
    <edge id=":A_27" function="internal">
        <lane id=":A_27_0" index="0" speed="3.65" length="3.23" shape="629.87,484.68,4.63 630.27,485.48,4.63 629.87,486.28,4.63 628.67,487.08,4.63" />
    </edge>
    <edge id=":AA_0" function="internal">
        <lane id=":AA_0_0" index="0" speed="3.65" length="4.67" shape="479.28,487.08,4.63 478.08,486.28,4.63 477.68,485.48,4.63 478.08,484.68,4.63 479.28,483.88,4.63" />
    </edge>
    <edge id=":AB_0" function="internal">
        <lane id=":AB_0_0" index="0" speed="3.65" length="4.67" shape="640.67,645.28,4.63 639.87,646.48,4.63 639.07,646.88,4.63 638.27,646.48,4.63 637.47,645.28,4.63" />
    </edge>
    <edge id=":AC_0" function="internal">
        <lane id=":AC_0_0" index="0" speed="3.65" length="4.67" shape="798.87,483.88,4.63 800.07,484.68,4.63 800.47,485.48,4.63 800.07,486.28,4.63 798.87,487.08,4.63" />
    </edge>
    <edge id=":B_0" function="internal">
        <lane id=":B_0_0" index="0" speed="6.51" length="9.03" shape="894.76,332.89,1.10 894.41,330.44,1.09 893.36,328.69,1.08 891.61,327.64,1.08 889.16,327.29,1.07" />
    </edge>
    <edge id=":B_1" function="internal">
        <lane id=":B_1_0" index="0" speed="11.18" length="14.40" shape="894.76,332.89,1.10 894.76,318.49,1.10" />
    </edge>
    <edge id=":B_2" function="internal">
        <lane id=":B_2_0" index="0" speed="8.00" length="4.07" shape="894.76,332.89,1.10 895.31,329.04,1.10 895.40,328.89,1.10" />
    </edge>
    <edge id=":B_3" function="internal">
        <lane id=":B_3_0" index="0" speed="3.65" length="1.44" shape="894.76,332.89,1.10 895.56,331.69,1.10" />
    </edge>
    <edge id=":B_16" function="internal">
        <lane id=":B_16_0" index="0" speed="8.00" length="10.13" shape="895.40,328.89,1.10 896.96,326.29,1.10 899.71,324.64,1.10 903.56,324.09,1.10" />
    </edge>
    <edge id=":B_17" function="internal">
        <lane id=":B_17_0" index="0" speed="3.65" length="3.23" shape="895.56,331.69,1.10 896.36,331.29,1.10 897.16,331.69,1.10 897.96,332.89,1.10" />
    </edge>
    <edge id=":B_4" function="internal">
        <lane id=":B_4_0" index="0" speed="6.51" length="9.03" shape="903.56,327.29,1.10 901.11,327.64,1.10 899.36,328.69,1.10 898.31,330.44,1.10 897.96,332.89,1.10" />
    </edge>
    <edge id=":B_5" function="internal">
        <lane id=":B_5_0" index="0" speed="11.18" length="14.40" shape="903.56,327.29,1.10 889.16,327.29,1.07" />
    </edge>
    <edge id=":B_6" function="internal">
        <lane id=":B_6_0" index="0" speed="8.00" length="4.07" shape="903.56,327.29,1.10 899.71,326.74,1.10 899.56,326.65,1.10" />
    </edge>
    <edge id=":B_7" function="internal">
        <lane id=":B_7_0" index="0" speed="3.65" length="1.44" shape="903.56,327.29,1.10 902.36,326.49,1.10" />
    </edge>
    <edge id=":B_18" function="internal">
        <lane id=":B_18_0" index="0" speed="8.00" length="10.13" shape="899.56,326.65,1.10 896.96,325.09,1.10 895.31,322.34,1.10 894.76,318.49,1.10" />
    </edge>
    <edge id=":B_19" function="internal">
        <lane id=":B_19_0" index="0" speed="3.65" length="3.23" shape="902.36,326.49,1.10 901.96,325.69,1.10 902.36,324.89,1.10 903.56,324.09,1.10" />
    </edge>
    <edge id=":B_8" function="internal">
        <lane id=":B_8_0" index="0" speed="6.51" length="9.03" shape="897.96,318.49,1.10 898.31,320.94,1.10 899.36,322.69,1.10 901.11,323.74,1.10 903.56,324.09,1.10" />
    </edge>
    <edge id=":B_9" function="internal">
        <lane id=":B_9_0" index="0" speed="11.18" length="14.40" shape="897.96,318.49,1.10 897.96,332.89,1.10" />
    </edge>
    <edge id=":B_10" function="internal">
        <lane id=":B_10_0" index="0" speed="8.00" length="4.07" shape="897.96,318.49,1.10 897.41,322.34,1.09 897.32,322.49,1.09" />
    </edge>
    <edge id=":B_11" function="internal">
        <lane id=":B_11_0" index="0" speed="3.65" length="1.44" shape="897.96,318.49,1.10 897.16,319.69,1.10" />
    </edge>
    <edge id=":B_20" function="internal">
        <lane id=":B_20_0" index="0" speed="8.00" length="10.13" shape="897.32,322.49,1.09 895.76,325.09,1.08 893.01,326.74,1.08 889.16,327.29,1.07" />
    </edge>
    <edge id=":B_21" function="internal">
        <lane id=":B_21_0" index="0" speed="3.65" length="3.23" shape="897.16,319.69,1.10 896.36,320.09,1.10 895.56,319.69,1.10 894.76,318.49,1.10" />
    </edge>
    <edge id=":B_12" function="internal">
        <lane id=":B_12_0" index="0" speed="6.51" length="9.03" shape="889.16,324.09,1.07 891.61,323.74,1.08 893.36,322.69,1.08 894.41,320.94,1.09 894.76,318.49,1.10" />
    </edge>
    <edge id=":B_13" function="internal">
        <lane id=":B_13_0" index="0" speed="11.18" length="14.40" shape="889.16,324.09,1.07 903.56,324.09,1.10" />
    </edge>
    <edge id=":B_14" function="internal">
        <lane id=":B_14_0" index="0" speed="8.00" length="4.07" shape="889.16,324.09,1.07 893.01,324.64,1.08 893.16,324.73,1.08" />
    </edge>
    <edge id=":B_15" function="internal">
        <lane id=":B_15_0" index="0" speed="3.65" length="1.44" shape="889.16,324.09,1.07 890.36,324.89,1.07" />
    </edge>
    <edge id=":B_22" function="internal">
        <lane id=":B_22_0" index="0" speed="8.00" length="10.13" shape="893.16,324.73,1.08 895.76,326.29,1.08 897.41,329.04,1.09 897.96,332.89,1.10" />
    </edge>
    <edge id=":B_23" function="internal">
        <lane id=":B_23_0" index="0" speed="3.65" length="3.23" shape="890.36,324.89,1.07 890.76,325.69,1.07 890.36,326.49,1.07 889.16,327.29,1.07" />
    </edge>
    <edge id=":BA_0" function="internal">
        <lane id=":BA_0_0" index="0" speed="3.65" length="4.67" shape="897.96,582.98,1.10 897.16,584.18,1.10 896.36,584.58,1.10 895.56,584.18,1.10 894.76,582.98,1.10" />
    </edge>
    <edge id=":BB_0" function="internal">
        <lane id=":BB_0_0" index="0" speed="3.65" length="4.67" shape="1153.65,324.09,1.10 1154.85,324.89,1.10 1155.25,325.69,1.10 1154.85,326.49,1.10 1153.65,327.29,1.10" />
    </edge>
    <edge id=":BC_0" function="internal">
        <lane id=":BC_0_0" index="0" speed="3.65" length="4.67" shape="894.76,68.41,1.10 895.56,67.21,1.10 896.36,66.81,1.10 897.16,67.21,1.10 897.96,68.41,1.10" />
    </edge>
    <edge id=":C_0" function="internal">
        <lane id=":C_0_0" index="0" speed="6.51" length="9.03" shape="637.47,170.05,-3.75 637.12,167.60,-3.79 636.07,165.85,-3.83 634.32,164.80,-3.87 631.87,164.45,-3.92" />
    </edge>
    <edge id=":C_1" function="internal">
        <lane id=":C_1_0" index="0" speed="11.18" length="14.40" shape="637.47,170.05,-3.75 637.47,155.65,-3.92" />
    </edge>
    <edge id=":C_2" function="internal">
        <lane id=":C_2_0" index="0" speed="8.00" length="4.07" shape="637.47,170.05,-3.75 638.02,166.20,-3.79 638.11,166.04,-3.80" />
    </edge>
    <edge id=":C_3" function="internal">
        <lane id=":C_3_0" index="0" speed="3.65" length="1.44" shape="637.47,170.05,-3.75 638.27,168.85,-3.75" />
    </edge>
    <edge id=":C_16" function="internal">
        <lane id=":C_16_0" index="0" speed="8.00" length="10.13" shape="638.11,166.04,-3.80 639.67,163.45,-3.83 642.42,161.80,-3.87 646.27,161.25,-3.92" />
    </edge>
    <edge id=":C_17" function="internal">
        <lane id=":C_17_0" index="0" speed="3.65" length="3.23" shape="638.27,168.85,-3.75 639.07,168.45,-3.75 639.87,168.85,-3.75 640.67,170.05,-3.75" />
    </edge>
    <edge id=":C_4" function="internal">
        <lane id=":C_4_0" index="0" speed="6.51" length="9.03" shape="646.27,164.45,-3.92 643.82,164.80,-3.87 642.07,165.85,-3.83 641.02,167.60,-3.79 640.67,170.05,-3.75" />
    </edge>
    <edge id=":C_5" function="internal">
        <lane id=":C_5_0" index="0" speed="11.18" length="14.40" shape="646.27,164.45,-3.92 631.87,164.45,-3.92" />
    </edge>
    <edge id=":C_6" function="internal">
        <lane id=":C_6_0" index="0" speed="8.00" length="4.07" shape="646.27,164.45,-3.92 642.42,163.90,-3.92 642.27,163.80,-3.92" />
    </edge>
    <edge id=":C_7" function="internal">
        <lane id=":C_7_0" index="0" speed="3.65" length="1.44" shape="646.27,164.45,-3.92 645.07,163.65,-3.92" />
    </edge>
    <edge id=":C_18" function="internal">
        <lane id=":C_18_0" index="0" speed="8.00" length="10.13" shape="642.27,163.80,-3.92 639.67,162.25,-3.92 638.02,159.50,-3.92 637.47,155.65,-3.92" />
    </edge>
    <edge id=":C_19" function="internal">
        <lane id=":C_19_0" index="0" speed="3.65" length="3.23" shape="645.07,163.65,-3.92 644.67,162.85,-3.92 645.07,162.05,-3.92 646.27,161.25,-3.92" />
    </edge>
    <edge id=":C_8" function="internal">
        <lane id=":C_8_0" index="0" speed="6.51" length="9.03" shape="640.67,155.65,-3.92 641.02,158.10,-3.92 642.07,159.85,-3.92 643.82,160.90,-3.92 646.27,161.25,-3.92" />
    </edge>
    <edge id=":C_9" function="internal">
        <lane id=":C_9_0" index="0" speed="11.18" length="14.40" shape="640.67,155.65,-3.92 640.67,170.05,-3.75" />
    </edge>
    <edge id=":C_10" function="internal">
        <lane id=":C_10_0" index="0" speed="8.00" length="4.07" shape="640.67,155.65,-3.92 640.12,159.50,-3.92 640.03,159.65,-3.92" />
    </edge>
    <edge id=":C_11" function="internal">
        <lane id=":C_11_0" index="0" speed="3.65" length="1.44" shape="640.67,155.65,-3.92 639.87,156.85,-3.92" />
    </edge>
    <edge id=":C_20" function="internal">
        <lane id=":C_20_0" index="0" speed="8.00" length="10.13" shape="640.03,159.65,-3.92 638.47,162.25,-3.92 635.72,163.90,-3.92 631.87,164.45,-3.92" />
    </edge>
    <edge id=":C_21" function="internal">
        <lane id=":C_21_0" index="0" speed="3.65" length="3.23" shape="639.87,156.85,-3.92 639.07,157.25,-3.92 638.27,156.85,-3.92 637.47,155.65,-3.92" />
    </edge>
    <edge id=":C_12" function="internal">
        <lane id=":C_12_0" index="0" speed="6.51" length="9.03" shape="631.87,161.25,-3.92 634.32,160.90,-3.92 636.07,159.85,-3.92 637.12,158.10,-3.92 637.47,155.65,-3.92" />
    </edge>
    <edge id=":C_13" function="internal">
        <lane id=":C_13_0" index="0" speed="11.18" length="14.40" shape="631.87,161.25,-3.92 646.27,161.25,-3.92" />
    </edge>
    <edge id=":C_14" function="internal">
        <lane id=":C_14_0" index="0" speed="8.00" length="4.07" shape="631.87,161.25,-3.92 635.72,161.80,-3.87 635.88,161.89,-3.87" />
    </edge>
    <edge id=":C_15" function="internal">
        <lane id=":C_15_0" index="0" speed="3.65" length="1.44" shape="631.87,161.25,-3.92 633.07,162.05,-3.92" />
    </edge>
    <edge id=":C_22" function="internal">
        <lane id=":C_22_0" index="0" speed="8.00" length="10.13" shape="635.88,161.89,-3.87 638.47,163.45,-3.83 640.12,166.20,-3.79 640.67,170.05,-3.75" />
    </edge>
    <edge id=":C_23" function="internal">
        <lane id=":C_23_0" index="0" speed="3.65" length="3.23" shape="633.07,162.05,-3.92 633.47,162.85,-3.92 633.07,163.65,-3.92 631.87,164.45,-3.92" />
    </edge>
    <edge id=":CA_0" function="internal">
        <lane id=":CA_0_0" index="0" speed="3.65" length="4.67" shape="801.92,161.25,-3.92 803.12,162.05,-3.92 803.52,162.85,-3.92 803.12,163.65,-3.92 801.92,164.45,-3.92" />
    </edge>
    <edge id=":CB_0" function="internal">
        <lane id=":CB_0_0" index="0" speed="3.65" length="4.67" shape="637.47,-0.00,-3.92 638.27,-1.20,-3.92 639.07,-1.60,-3.92 639.87,-1.20,-3.92 640.67,-0.00,-3.92" />
    </edge>
    <edge id=":CC_0" function="internal">
        <lane id=":CC_0_0" index="0" speed="3.65" length="4.67" shape="476.23,164.45,-3.92 475.03,163.65,-3.92 474.63,162.85,-3.92 475.03,162.05,-3.92 476.23,161.25,-3.92" />
    </edge>
    <edge id=":D_0" function="internal">
        <lane id=":D_0_0" index="0" speed="6.51" length="9.03" shape="317.94,332.89,1.36 317.59,330.44,1.36 316.54,328.69,1.36 314.79,327.64,1.36 312.34,327.29,1.36" />
    </edge>
    <edge id=":D_1" function="internal">
        <lane id=":D_1_0" index="0" speed="11.18" length="14.40" shape="317.94,332.89,1.36 317.94,318.49,1.36" />
    </edge>
    <edge id=":D_2" function="internal">
        <lane id=":D_2_0" index="0" speed="8.00" length="4.07" shape="317.94,332.89,1.36 318.49,329.04,1.36 318.58,328.89,1.35" />
    </edge>
    <edge id=":D_3" function="internal">
        <lane id=":D_3_0" index="0" speed="3.65" length="1.44" shape="317.94,332.89,1.36 318.74,331.69,1.36" />
    </edge>
    <edge id=":D_16" function="internal">
        <lane id=":D_16_0" index="0" speed="8.00" length="10.13" shape="318.58,328.89,1.35 320.14,326.29,1.35 322.89,324.64,1.34 326.74,324.09,1.33" />
    </edge>
    <edge id=":D_17" function="internal">
        <lane id=":D_17_0" index="0" speed="3.65" length="3.23" shape="318.74,331.69,1.36 319.54,331.29,1.36 320.34,331.69,1.36 321.14,332.89,1.36" />
    </edge>
    <edge id=":D_4" function="internal">
        <lane id=":D_4_0" index="0" speed="6.51" length="9.03" shape="326.74,327.29,1.33 324.29,327.64,1.34 322.54,328.69,1.35 321.49,330.44,1.36 321.14,332.89,1.36" />
    </edge>
    <edge id=":D_5" function="internal">
        <lane id=":D_5_0" index="0" speed="11.18" length="14.40" shape="326.74,327.29,1.33 312.34,327.29,1.36" />
    </edge>
    <edge id=":D_6" function="internal">
        <lane id=":D_6_0" index="0" speed="8.00" length="4.07" shape="326.74,327.29,1.33 322.89,326.74,1.34 322.73,326.65,1.34" />
    </edge>
    <edge id=":D_7" function="internal">
        <lane id=":D_7_0" index="0" speed="3.65" length="1.44" shape="326.74,327.29,1.33 325.54,326.49,1.33" />
    </edge>
    <edge id=":D_18" function="internal">
        <lane id=":D_18_0" index="0" speed="8.00" length="10.13" shape="322.73,326.65,1.34 320.14,325.09,1.35 318.49,322.34,1.36 317.94,318.49,1.36" />
    </edge>
    <edge id=":D_19" function="internal">
        <lane id=":D_19_0" index="0" speed="3.65" length="3.23" shape="325.54,326.49,1.33 325.14,325.69,1.33 325.54,324.89,1.33 326.74,324.09,1.33" />
    </edge>
    <edge id=":D_8" function="internal">
        <lane id=":D_8_0" index="0" speed="6.51" length="9.03" shape="321.14,318.49,1.36 321.49,320.94,1.36 322.54,322.69,1.35 324.29,323.74,1.34 326.74,324.09,1.33" />
    </edge>
    <edge id=":D_9" function="internal">
        <lane id=":D_9_0" index="0" speed="11.18" length="14.40" shape="321.14,318.49,1.36 321.14,332.89,1.36" />
    </edge>
    <edge id=":D_10" function="internal">
        <lane id=":D_10_0" index="0" speed="8.00" length="4.07" shape="321.14,318.49,1.36 320.59,322.34,1.36 320.50,322.49,1.36" />
    </edge>
    <edge id=":D_11" function="internal">
        <lane id=":D_11_0" index="0" speed="3.65" length="1.44" shape="321.14,318.49,1.36 320.34,319.69,1.36" />
    </edge>
    <edge id=":D_20" function="internal">
        <lane id=":D_20_0" index="0" speed="8.00" length="10.13" shape="320.50,322.49,1.36 318.94,325.09,1.36 316.19,326.74,1.36 312.34,327.29,1.36" />
    </edge>
    <edge id=":D_21" function="internal">
        <lane id=":D_21_0" index="0" speed="3.65" length="3.23" shape="320.34,319.69,1.36 319.54,320.09,1.36 318.74,319.69,1.36 317.94,318.49,1.36" />
    </edge>
    <edge id=":D_12" function="internal">
        <lane id=":D_12_0" index="0" speed="6.51" length="9.03" shape="312.34,324.09,1.36 314.79,323.74,1.36 316.54,322.69,1.36 317.59,320.94,1.36 317.94,318.49,1.36" />
    </edge>
    <edge id=":D_13" function="internal">
        <lane id=":D_13_0" index="0" speed="11.18" length="14.40" shape="312.34,324.09,1.36 326.74,324.09,1.33" />
    </edge>
    <edge id=":D_14" function="internal">
        <lane id=":D_14_0" index="0" speed="8.00" length="4.07" shape="312.34,324.09,1.36 316.19,324.64,1.36 316.34,324.73,1.36" />
    </edge>
    <edge id=":D_15" function="internal">
        <lane id=":D_15_0" index="0" speed="3.65" length="1.44" shape="312.34,324.09,1.36 313.54,324.89,1.36" />
    </edge>
    <edge id=":D_22" function="internal">
        <lane id=":D_22_0" index="0" speed="8.00" length="10.13" shape="316.34,324.73,1.36 318.94,326.29,1.36 320.59,329.04,1.36 321.14,332.89,1.36" />
    </edge>
    <edge id=":D_23" function="internal">
        <lane id=":D_23_0" index="0" speed="3.65" length="3.23" shape="313.54,324.89,1.36 313.94,325.69,1.36 313.54,326.49,1.36 312.34,327.29,1.36" />
    </edge>
    <edge id=":DA_0" function="internal">
        <lane id=":DA_0_0" index="0" speed="3.65" length="4.67" shape="317.94,6.15,1.36 318.74,4.95,1.36 319.54,4.55,1.36 320.34,4.95,1.36 321.14,6.15,1.36" />
    </edge>
    <edge id=":DB_0" function="internal">
        <lane id=":DB_0_0" index="0" speed="3.65" length="4.67" shape="0.00,327.29,1.36 -1.20,326.49,1.36 -1.60,325.69,1.36 -1.20,324.89,1.36 0.00,324.09,1.36" />
    </edge>
    <edge id=":DC_0" function="internal">
        <lane id=":DC_0_0" index="0" speed="3.65" length="4.67" shape="321.14,645.23,1.36 320.34,646.43,1.36 319.54,646.83,1.36 318.74,646.43,1.36 317.94,645.23,1.36" />
    </edge>
    <edge id=":TL_0" function="internal">
        <lane id=":TL_0_0" index="0" speed="6.51" length="9.03" shape="634.27,332.89 633.92,330.44,0.01 632.87,328.69,0.02 631.12,327.64,0.03 628.67,327.29,0.04" />
    </edge>
    <edge id=":TL_1" function="internal">
        <lane id=":TL_1_0" index="0" speed="11.18" length="14.62" shape="634.27,332.89 634.77,328.23,-0.05 635.87,324.80,-0.10 636.97,321.81,-0.13 637.47,318.49,-0.17" />
        <lane id=":TL_1_1" index="1" speed="11.18" length="14.62" shape="637.47,332.89 637.47,318.49,-0.17" />
    </edge>
    <edge id=":TL_3" function="internal">
        <lane id=":TL_3_0" index="0" speed="8.67" length="7.07" shape="637.47,332.89 638.22,329.04,0.01 640.22,326.61,0.02" />
    </edge>
    <edge id=":TL_10" function="internal">
        <lane id=":TL_10_0" index="0" speed="8.67" length="9.78" shape="640.22,326.61,0.02 640.47,326.29,0.02 644.22,324.64,0.03 649.47,324.09,0.04" />
    </edge>
    <edge id=":TL_4" function="internal">
        <lane id=":TL_4_0" index="0" speed="6.51" length="9.03" shape="649.47,327.29,0.04 647.02,327.64,0.03 645.27,328.69,0.02 644.22,330.44,0.01 643.87,332.89" />
    </edge>
    <edge id=":TL_5" function="internal">
        <lane id=":TL_5_0" index="0" speed="11.18" length="20.80" shape="649.47,327.29,0.04 628.67,327.29,0.04" />
    </edge>
    <edge id=":TL_6" function="internal">
        <lane id=":TL_6_0" index="0" speed="7.33" length="11.73" shape="640.67,318.49,-0.17 641.22,320.94,-0.13 642.87,322.69,-0.08 645.62,323.74,-0.03 649.47,324.09,0.04" />
    </edge>
    <edge id=":TL_7" function="internal">
        <lane id=":TL_7_0" index="0" speed="11.18" length="14.83" shape="640.67,318.49,-0.17 641.17,321.81,-0.13 642.27,324.80,-0.10 643.37,328.23,-0.05 643.87,332.89" />
    </edge>
    <edge id=":TL_8" function="internal">
        <lane id=":TL_8_0" index="0" speed="7.33" length="11.73" shape="628.67,324.09,0.04 632.52,323.74,-0.03 635.27,322.69,-0.08 636.92,320.94,-0.13 637.47,318.49,-0.17" />
    </edge>
    <edge id=":TL_9" function="internal">
        <lane id=":TL_9_0" index="0" speed="11.18" length="20.80" shape="628.67,324.09,0.04 649.47,324.09,0.04" />
    </edge>

    <edge id="A2AA" from="A" to="AA" priority="-1">
        <lane id="A2AA_0" index="0" speed="11.18" length="149.39" shape="628.67,490.28,4.63 479.28,490.28,4.63" />
        <lane id="A2AA_1" index="1" speed="11.18" length="149.39" shape="628.67,487.08,4.63 479.28,487.08,4.63" />
    </edge>
    <edge id="A2AB" from="A" to="AB" priority="-1">
        <lane id="A2AB_0" index="0" speed="11.18" length="149.39" shape="643.87,495.88,4.63 643.87,645.28,4.63" />
        <lane id="A2AB_1" index="1" speed="11.18" length="149.39" shape="640.67,495.88,4.63 640.67,645.28,4.63" />
    </edge>
    <edge id="A2AC" from="A" to="AC" priority="-1">
        <lane id="A2AC_0" index="0" speed="11.18" length="149.39" shape="649.47,480.68,4.63 798.87,480.68,4.63" />
        <lane id="A2AC_1" index="1" speed="11.18" length="149.39" shape="649.47,483.88,4.63 798.87,483.88,4.63" />
    </edge>
    <edge id="A2TL" from="A" to="TL" priority="-1">
        <lane id="A2TL_0" index="0" speed="11.18" length="142.27" shape="634.27,475.08,4.63 634.27,332.89" />
        <lane id="A2TL_1" index="1" speed="11.18" length="142.27" shape="637.47,475.08,4.63 637.47,332.89" />
    </edge>
    <edge id="AA2A" from="AA" to="A" priority="-1">
        <lane id="AA2A_0" index="0" speed="11.18" length="149.39" shape="479.28,480.68,4.63 628.67,480.68,4.63" />
        <lane id="AA2A_1" index="1" speed="11.18" length="149.39" shape="479.28,483.88,4.63 628.67,483.88,4.63" />
    </edge>
    <edge id="AB2A" from="AB" to="A" priority="-1">
        <lane id="AB2A_0" index="0" speed="11.18" length="149.39" shape="634.27,645.28,4.63 634.27,495.88,4.63" />
        <lane id="AB2A_1" index="1" speed="11.18" length="149.39" shape="637.47,645.28,4.63 637.47,495.88,4.63" />
    </edge>
    <edge id="AC2A" from="AC" to="A" priority="-1">
        <lane id="AC2A_0" index="0" speed="11.18" length="149.39" shape="798.87,490.28,4.63 649.47,490.28,4.63" />
        <lane id="AC2A_1" index="1" speed="11.18" length="149.39" shape="798.87,487.08,4.63 649.47,487.08,4.63" />
    </edge>
    <edge id="B2BA" from="B" to="BA" priority="-1">
        <lane id="B2BA_0" index="0" speed="11.18" length="250.09" shape="897.96,332.89,1.10 897.96,582.98,1.10" />
    </edge>
    <edge id="B2BB" from="B" to="BB" priority="-1">
        <lane id="B2BB_0" index="0" speed="11.18" length="250.09" shape="903.56,324.09,1.10 1153.65,324.09,1.10" />
    </edge>
    <edge id="B2BC" from="B" to="BC" priority="-1">
        <lane id="B2BC_0" index="0" speed="11.18" length="250.09" shape="894.76,318.49,1.10 894.76,68.41,1.10" />
    </edge>
    <edge id="B2TL" from="B" to="TL" priority="-1">
        <lane id="B2TL_0" index="0" speed="11.18" length="239.69" shape="889.16,327.29,1.07 649.47,327.29,0.04" />
    </edge>
    <edge id="BA2B" from="BA" to="B" priority="-1">
        <lane id="BA2B_0" index="0" speed="11.18" length="250.09" shape="894.76,582.98,1.10 894.76,332.89,1.10" />
    </edge>
    <edge id="BB2B" from="BB" to="B" priority="-1">
        <lane id="BB2B_0" index="0" speed="11.18" length="250.09" shape="1153.65,327.29,1.10 903.56,327.29,1.10" />
    </edge>
    <edge id="BC2B" from="BC" to="B" priority="-1">
        <lane id="BC2B_0" index="0" speed="11.18" length="250.09" shape="897.96,68.41,1.10 897.96,318.49,1.10" />
    </edge>
    <edge id="C2CA" from="C" to="CA" priority="-1">
        <lane id="C2CA_0" index="0" speed="11.18" length="155.65" shape="646.27,161.25,-3.92 801.92,161.25,-3.92" />
    </edge>
    <edge id="C2CB" from="C" to="CB" priority="-1">
        <lane id="C2CB_0" index="0" speed="11.18" length="155.65" shape="637.47,155.65,-3.92 637.47,-0.00,-3.92" />
    </edge>
    <edge id="C2CC" from="C" to="CC" priority="-1">
        <lane id="C2CC_0" index="0" speed="11.18" length="155.65" shape="631.87,164.45,-3.92 476.23,164.45,-3.92" />
    </edge>
    <edge id="C2TL" from="C" to="TL" priority="-1">
        <lane id="C2TL_0" index="0" speed="11.18" length="148.49" shape="640.67,170.05,-3.75 640.67,318.49,-0.17" />
    </edge>
    <edge id="CA2C" from="CA" to="C" priority="-1">
        <lane id="CA2C_0" index="0" speed="11.18" length="155.65" shape="801.92,164.45,-3.92 646.27,164.45,-3.92" />
    </edge>
    <edge id="CB2C" from="CB" to="C" priority="-1">
        <lane id="CB2C_0" index="0" speed="11.18" length="155.65" shape="640.67,-0.00,-3.92 640.67,155.65,-3.92" />
    </edge>
    <edge id="CC2C" from="CC" to="C" priority="-1">
        <lane id="CC2C_0" index="0" speed="11.18" length="155.65" shape="476.23,161.25,-3.92 631.87,161.25,-3.92" />
    </edge>
    <edge id="D2DA" from="D" to="DA" priority="-1">
        <lane id="D2DA_0" index="0" speed="11.18" length="312.34" shape="317.94,318.49,1.36 317.94,6.15,1.36" />
    </edge>
    <edge id="D2DB" from="D" to="DB" priority="-1">
        <lane id="D2DB_0" index="0" speed="11.18" length="312.34" shape="312.34,327.29,1.36 0.00,327.29,1.36" />
    </edge>
    <edge id="D2DC" from="D" to="DC" priority="-1">
        <lane id="D2DC_0" index="0" speed="11.18" length="312.34" shape="321.14,332.89,1.36 321.14,645.23,1.36" />
    </edge>
    <edge id="D2TL" from="D" to="TL" priority="-1">
        <lane id="D2TL_0" index="0" speed="11.18" length="301.94" shape="326.74,324.09,1.33 628.67,324.09,0.04" />
    </edge>
    <edge id="DA2D" from="DA" to="D" priority="-1">
        <lane id="DA2D_0" index="0" speed="11.18" length="312.34" shape="321.14,6.15,1.36 321.14,318.49,1.36" />
    </edge>
    <edge id="DB2D" from="DB" to="D" priority="-1">
        <lane id="DB2D_0" index="0" speed="11.18" length="312.34" shape="0.00,324.09,1.36 312.34,324.09,1.36" />
    </edge>
    <edge id="DC2D" from="DC" to="D" priority="-1">
        <lane id="DC2D_0" index="0" speed="11.18" length="312.34" shape="317.94,645.23,1.36 317.94,332.89,1.36" />
    </edge>