<net xmlns:xsi="http://www.w3.org/2001/XMLSchema-instance" version="1.9" junctionCornerDetail="5" limitTurnSpeed="5.50" xsi:noNamespaceSchemaLocation="http://sumo.dlr.de/xsd/net_file.xsd">

    <location netOffset="318.98,637.96" convBoundary="0.00,0.00,795.20,1275.44" origBoundary="-318.98,-637.96,476.22,637.48" projParameter="!" />

    <edge id=":A_0" function="internal">
        <lane id=":A_0_0" index="0" speed="6.51" length="9.03" shape="317.38,963.90,3.40 317.03,961.45,3.40 315.98,959.70,3.40 314.23,958.65,3.40 311.78,958.30,3.40" />
    </edge>
    <edge id=":A_1" function="internal">
        <lane id=":A_1_0" index="0" speed="13.41" length="14.40" shape="317.38,963.90,3.40 317.38,949.50,3.32" />
    </edge>
    <edge id=":A_2" function="internal">
        <lane id=":A_2_0" index="0" speed="8.00" length="4.07" shape="317.38,963.90,3.40 317.93,960.05,3.40 318.02,959.90,3.40" />
    </edge>
    <edge id=":A_3" function="internal">
        <lane id=":A_3_0" index="0" speed="3.65" length="1.44" shape="317.38,963.90,3.40 318.18,962.70,3.40" />
    </edge>
    <edge id=":A_16" function="internal">
        <lane id=":A_16_0" index="0" speed="8.00" length="10.13" shape="318.02,959.90,3.40 319.58,957.30,3.40 322.33,955.65,3.40 326.18,955.10,3.40" />
    </edge>
    <edge id=":A_17" function="internal">
        <lane id=":A_17_0" index="0" speed="3.65" length="3.23" shape="318.18,962.70,3.40 318.98,962.30,3.40 319.78,962.70,3.40 320.58,963.90,3.40" />
    </edge>
    <edge id=":A_4" function="internal">
        <lane id=":A_4_0" index="0" speed="6.51" length="9.03" shape="326.18,958.30,3.40 323.73,958.65,3.40 321.98,959.70,3.40 320.93,961.45,3.40 320.58,963.90,3.40" />
    </edge>
    <edge id=":A_5" function="internal">
        <lane id=":A_5_0" index="0" speed="13.41" length="14.40" shape="326.18,958.30,3.40 311.78,958.30,3.40" />
    </edge>
    <edge id=":A_6" function="internal">
        <lane id=":A_6_0" index="0" speed="8.00" length="4.07" shape="326.18,958.30,3.40 322.33,957.75,3.38 322.18,957.66,3.38" />
    </edge>
    <edge id=":A_7" function="internal">
        <lane id=":A_7_0" index="0" speed="3.65" length="1.44" shape="326.18,958.30,3.40 324.98,957.50,3.40" />
    </edge>
    <edge id=":A_18" function="internal">
        <lane id=":A_18_0" index="0" speed="8.00" length="10.13" shape="322.18,957.66,3.38 319.58,956.10,3.36 317.93,953.35,3.34 317.38,949.50,3.32" />
    </edge>
    <edge id=":A_19" function="internal">
        <lane id=":A_19_0" index="0" speed="3.65" length="3.23" shape="324.98,957.50,3.40 324.58,956.70,3.40 324.98,955.90,3.40 326.18,955.10,3.40" />
    </edge>
    <edge id=":A_8" function="internal">
        <lane id=":A_8_0" index="0" speed="6.51" length="9.03" shape="320.58,949.50,3.32 320.93,951.95,3.34 321.98,953.70,3.36 323.73,954.75,3.38 326.18,955.10,3.40" />
    </edge>
    <edge id=":A_9" function="internal">
        <lane id=":A_9_0" index="0" speed="13.41" length="14.40" shape="320.58,949.50,3.32 320.58,963.90,3.40" />
    </edge>
    <edge id=":A_10" function="internal">
        <lane id=":A_10_0" index="0" speed="8.00" length="4.07" shape="320.58,949.50,3.32 320.03,953.35,3.34 319.94,953.50,3.35" />
    </edge>
    <edge id=":A_11" function="internal">
        <lane id=":A_11_0" index="0" speed="3.65" length="1.44" shape="320.58,949.50,3.32 319.78,950.70,3.32" />
    </edge>
    <edge id=":A_20" function="internal">
        <lane id=":A_20_0" index="0" speed="8.00" length="10.13" shape="319.94,953.50,3.35 318.38,956.10,3.36 315.63,957.75,3.38 311.78,958.30,3.40" />
    </edge>
    <edge id=":A_21" function="internal">
        <lane id=":A_21_0" index="0" speed="3.65" length="3.23" shape="319.78,950.70,3.32 318.98,951.10,3.32 318.18,950.70,3.32 317.38,949.50,3.32" />
    </edge>
    <edge id=":A_12" function="internal">
        <lane id=":A_12_0" index="0" speed="6.51" length="9.03" shape="311.78,955.10,3.40 314.23,954.75,3.38 315.98,953.70,3.36 317.03,951.95,3.34 317.38,949.50,3.32" />
    </edge>
    <edge id=":A_13" function="internal">
        <lane id=":A_13_0" index="0" speed="13.41" length="14.40" shape="311.78,955.10,3.40 326.18,955.10,3.40" />
    </edge>
    <edge id=":A_14" function="internal">
        <lane id=":A_14_0" index="0" speed="8.00" length="4.07" shape="311.78,955.10,3.40 315.63,955.65,3.40 315.78,955.74,3.40" />
    </edge>
    <edge id=":A_15" function="internal">
        <lane id=":A_15_0" index="0" speed="3.65" length="1.44" shape="311.78,955.10,3.40 312.98,955.90,3.40" />
    </edge>
    <edge id=":A_22" function="internal">
        <lane id=":A_22_0" index="0" speed="8.00" length="10.13" shape="315.78,955.74,3.40 318.38,957.30,3.40 320.03,960.05,3.40 320.58,963.90,3.40" />
    </edge>
    <edge id=":A_23" function="internal">
        <lane id=":A_23_0" index="0" speed="3.65" length="3.23" shape="312.98,955.90,3.40 313.38,956.70,3.40 312.98,957.50,3.40 311.78,958.30,3.40" />
    </edge>
    <edge id=":AA_0" function="internal">
        <lane id=":AA_0_0" index="0" speed="3.65" length="4.67" shape="0.24,958.30,3.40 -0.96,957.50,3.40 -1.36,956.70,3.40 -0.96,955.90,3.40 0.24,955.10,3.40" />
    </edge>
    <edge id=":AB_0" function="internal">
        <lane id=":AB_0_0" index="0" speed="3.65" length="4.67" shape="320.58,1275.44,3.40 319.78,1276.64,3.40 318.98,1277.04,3.40 318.18,1276.64,3.40 317.38,1275.44,3.40" />
    </edge>
    <edge id=":AC_0" function="internal">
        <lane id=":AC_0_0" index="0" speed="3.65" length="4.67" shape="637.72,955.10,3.40 638.92,955.90,3.40 639.32,956.70,3.40 638.92,957.50,3.40 637.72,958.30,3.40" />
    </edge>
    <edge id=":B_0" function="internal">
        <lane id=":B_0_0" index="0" speed="6.51" length="9.03" shape="555.49,645.16,0.58 555.14,642.71,0.58 554.09,640.96,0.57 552.34,639.91,0.57 549.89,639.56,0.56" />
    </edge>
    <edge id=":B_1" function="internal">
        <lane id=":B_1_0" index="0" speed="13.41" length="14.40" shape="555.49,645.16,0.58 555.49,630.76,0.58" />
    </edge>
    <edge id=":B_2" function="internal">
        <lane id=":B_2_0" index="0" speed="8.00" length="4.07" shape="555.49,645.16,0.58 556.04,641.31,0.58 556.13,641.16,0.58" />
    </edge>
    <edge id=":B_3" function="internal">
        <lane id=":B_3_0" index="0" speed="3.65" length="1.44" shape="555.49,645.16,0.58 556.29,643.96,0.58" />
    </edge>
    <edge id=":B_16" function="internal">
        <lane id=":B_16_0" index="0" speed="8.00" length="10.13" shape="556.13,641.16,0.58 557.69,638.56,0.58 560.44,636.91,0.58 564.29,636.36,0.58" />
    </edge>
    <edge id=":B_17" function="internal">
        <lane id=":B_17_0" index="0" speed="3.65" length="3.23" shape="556.29,643.96,0.58 557.09,643.56,0.58 557.89,643.96,0.58 558.69,645.16,0.58" />
    </edge>
    <edge id=":B_4" function="internal">
        <lane id=":B_4_0" index="0" speed="6.51" length="9.03" shape="564.29,639.56,0.58 561.84,639.91,0.58 560.09,640.96,0.58 559.04,642.71,0.58 558.69,645.16,0.58" />
    </edge>
    <edge id=":B_5" function="internal">
        <lane id=":B_5_0" index="0" speed="13.41" length="14.40" shape="564.29,639.56,0.58 549.89,639.56,0.56" />
    </edge>
    <edge id=":B_6" function="internal">
        <lane id=":B_6_0" index="0" speed="8.00" length="4.07" shape="564.29,639.56,0.58 560.44,639.01,0.58 560.29,638.92,0.58" />
    </edge>
    <edge id=":B_7" function="internal">
        <lane id=":B_7_0" index="0" speed="3.65" length="1.44" shape="564.29,639.56,0.58 563.09,638.76,0.58" />
    </edge>
    <edge id=":B_18" function="internal">
        <lane id=":B_18_0" index="0" speed="8.00" length="10.13" shape="560.29,638.92,0.58 557.69,637.36,0.58 556.04,634.61,0.58 555.49,630.76,0.58" />
    </edge>
    <edge id=":B_19" function="internal">
        <lane id=":B_19_0" index="0" speed="3.65" length="3.23" shape="563.09,638.76,0.58 562.69,637.96,0.58 563.09,637.16,0.58 564.29,636.36,0.58" />
    </edge>
    <edge id=":B_8" function="internal">
        <lane id=":B_8_0" index="0" speed="6.51" length="9.03" shape="558.69,630.76,0.58 559.04,633.21,0.58 560.09,634.96,0.58 561.84,636.01,0.58 564.29,636.36,0.58" />
    </edge>
    <edge id=":B_9" function="internal">
        <lane id=":B_9_0" index="0" speed="13.41" length="14.40" shape="558.69,630.76,0.58 558.69,645.16,0.58" />
    </edge>
    <edge id=":B_10" function="internal">
        <lane id=":B_10_0" index="0" speed="8.00" length="4.07" shape="558.69,630.76,0.58 558.14,634.61,0.58 558.05,634.76,0.58" />
    </edge>
    <edge id=":B_11" function="internal">
        <lane id=":B_11_0" index="0" speed="3.65" length="1.44" shape="558.69,630.76,0.58 557.89,631.96,0.58" />
    </edge>
    <edge id=":B_20" function="internal">
        <lane id=":B_20_0" index="0" speed="8.00" length="10.13" shape="558.05,634.76,0.58 556.49,637.36,0.57 553.74,639.01,0.57 549.89,639.56,0.56" />
    </edge>
    <edge id=":B_21" function="internal">
        <lane id=":B_21_0" index="0" speed="3.65" length="3.23" shape="557.89,631.96,0.58 557.09,632.36,0.58 556.29,631.96,0.58 555.49,630.76,0.58" />
    </edge>
    <edge id=":B_12" function="internal">
        <lane id=":B_12_0" index="0" speed="6.51" length="9.03" shape="549.89,636.36,0.56 552.34,636.01,0.57 554.09,634.96,0.57 555.14,633.21,0.58 555.49,630.76,0.58" />
    </edge>
    <edge id=":B_13" function="internal">
        <lane id=":B_13_0" index="0" speed="13.41" length="14.40" shape="549.89,636.36,0.56 564.29,636.36,0.58" />
    </edge>
    <edge id=":B_14" function="internal">
        <lane id=":B_14_0" index="0" speed="8.00" length="4.07" shape="549.89,636.36,0.56 553.74,636.91,0.57 553.89,637.00,0.57" />
    </edge>
    <edge id=":B_15" function="internal">
        <lane id=":B_15_0" index="0" speed="3.65" length="1.44" shape="549.89,636.36,0.56 551.09,637.16,0.56" />
    </edge>
    <edge id=":B_22" function="internal">
        <lane id=":B_22_0" index="0" speed="8.00" length="10.13" shape="553.89,637.00,0.57 556.49,638.56,0.57 558.14,641.31,0.58 558.69,645.16,0.58" />
    </edge>
    <edge id=":B_23" function="internal">
        <lane id=":B_23_0" index="0" speed="3.65" length="3.23" shape="551.09,637.16,0.56 551.49,637.96,0.56 551.09,638.76,0.56 549.89,639.56,0.56" />
    </edge>
    <edge id=":BA_0" function="internal">
        <lane id=":BA_0_0" index="0" speed="3.65" length="4.67" shape="558.69,876.07,0.58 557.89,877.27,0.58 557.09,877.67,0.58 556.29,877.27,0.58 555.49,876.07,0.58" />
    </edge>
    <edge id=":BB_0" function="internal">
        <lane id=":BB_0_0" index="0" speed="3.65" length="4.67" shape="795.20,636.36,0.58 796.40,637.16,0.58 796.80,637.96,0.58 796.40,638.76,0.58 795.20,639.56,0.58" />
    </edge>
    <edge id=":BC_0" function="internal">
        <lane id=":BC_0_0" index="0" speed="3.65" length="4.67" shape="555.49,399.85,0.58 556.29,398.65,0.58 557.09,398.25,0.58 557.89,398.65,0.58 558.69,399.85,0.58" />
    </edge>
    <edge id=":C_0" function="internal">
        <lane id=":C_0_0" index="0" speed="6.51" length="9.03" shape="317.38,326.18,7.03 317.03,323.73,7.08 315.98,321.98,7.11 314.23,320.93,7.15 311.78,320.58,7.19" />
    </edge>
    <edge id=":C_1" function="internal">
        <lane id=":C_1_0" index="0" speed="13.41" length="14.40" shape="317.38,326.18,7.03 317.38,311.78,7.19" />
    </edge>
    <edge id=":C_2" function="internal">
        <lane id=":C_2_0" index="0" speed="8.00" length="4.07" shape="317.38,326.18,7.03 317.93,322.33,7.08 318.02,322.18,7.08" />
    </edge>
    <edge id=":C_3" function="internal">
        <lane id=":C_3_0" index="0" speed="3.65" length="1.44" shape="317.38,326.18,7.03 318.18,324.98,7.03" />
    </edge>
    <edge id=":C_16" function="internal">
        <lane id=":C_16_0" index="0" speed="8.00" length="10.13" shape="318.02,322.18,7.08 319.58,319.58,7.11 322.33,317.93,7.15 326.18,317.38,7.19" />
    </edge>
    <edge id=":C_17" function="internal">
        <lane id=":C_17_0" index="0" speed="3.65" length="3.23" shape="318.18,324.98,7.03 318.98,324.58,7.03 319.78,324.98,7.03 320.58,326.18,7.03" />
    </edge>
    <edge id=":C_4" function="internal">
        <lane id=":C_4_0" index="0" speed="6.51" length="9.03" shape="326.18,320.58,7.19 323.73,320.93,7.15 321.98,321.98,7.11 320.93,323.73,7.08 320.58,326.18,7.03" />
    </edge>
    <edge id=":C_5" function="internal">
        <lane id=":C_5_0" index="0" speed="13.41" length="14.40" shape="326.18,320.58,7.19 311.78,320.58,7.19" />
    </edge>
    <edge id=":C_6" function="internal">
        <lane id=":C_6_0" index="0" speed="8.00" length="4.07" shape="326.18,320.58,7.19 322.33,320.03,7.19 322.18,319.94,7.19" />
    </edge>
    <edge id=":C_7" function="internal">
        <lane id=":C_7_0" index="0" speed="3.65" length="1.44" shape="326.18,320.58,7.19 324.98,319.78,7.19" />
    </edge>
    <edge id=":C_18" function="internal">
        <lane id=":C_18_0" index="0" speed="8.00" length="10.13" shape="322.18,319.94,7.19 319.58,318.38,7.19 317.93,315.63,7.19 317.38,311.78,7.19" />
    </edge>
    <edge id=":C_19" function="internal">
        <lane id=":C_19_0" index="0" speed="3.65" length="3.23" shape="324.98,319.78,7.19 324.58,318.98,7.19 324.98,318.18,7.19 326.18,317.38,7.19" />
    </edge>
    <edge id=":C_8" function="internal">
        <lane id=":C_8_0" index="0" speed="6.51" length="9.03" shape="320.58,311.78,7.19 320.93,314.23,7.19 321.98,315.98,7.19 323.73,317.03,7.19 326.18,317.38,7.19" />
    </edge>
    <edge id=":C_9" function="internal">
        <lane id=":C_9_0" index="0" speed="13.41" length="14.40" shape="320.58,311.78,7.19 320.58,326.18,7.03" />
    </edge>
    <edge id=":C_10" function="internal">
        <lane id=":C_10_0" index="0" speed="8.00" length="4.07" shape="320.58,311.78,7.19 320.03,315.63,7.19 319.94,315.78,7.19" />
    </edge>
    <edge id=":C_11" function="internal">
        <lane id=":C_11_0" index="0" speed="3.65" length="1.44" shape="320.58,311.78,7.19 319.78,312.98,7.19" />
    </edge>
    <edge id=":C_20" function="internal">
        <lane id=":C_20_0" index="0" speed="8.00" length="10.13" shape="319.94,315.78,7.19 318.38,318.38,7.19 315.63,320.03,7.19 311.78,320.58,7.19" />
    </edge>
    <edge id=":C_21" function="internal">
        <lane id=":C_21_0" index="0" speed="3.65" length="3.23" shape="319.78,312.98,7.19 318.98,313.38,7.19 318.18,312.98,7.19 317.38,311.78,7.19" />
    </edge>
    <edge id=":C_12" function="internal">
        <lane id=":C_12_0" index="0" speed="6.51" length="9.03" shape="311.78,317.38,7.19 314.23,317.03,7.19 315.98,315.98,7.19 317.03,314.23,7.19 317.38,311.78,7.19" />
    </edge>
    <edge id=":C_13" function="internal">
        <lane id=":C_13_0" index="0" speed="13.41" length="14.40" shape="311.78,317.38,7.19 326.18,317.38,7.19" />
    </edge>
    <edge id=":C_14" function="internal">
        <lane id=":C_14_0" index="0" speed="8.00" length="4.07" shape="311.78,317.38,7.19 315.63,317.93,7.15 315.78,318.02,7.15" />
    </edge>
    <edge id=":C_15" function="internal">
        <lane id=":C_15_0" index="0" speed="3.65" length="1.44" shape="311.78,317.38,7.19 312.98,318.18,7.19" />
    </edge>
    <edge id=":C_22" function="internal">
        <lane id=":C_22_0" index="0" speed="8.00" length="10.13" shape="315.78,318.02,7.15 318.38,319.58,7.11 320.03,322.33,7.08 320.58,326.18,7.03" />
    </edge>
    <edge id=":C_23" function="internal">
        <lane id=":C_23_0" index="0" speed="3.65" length="3.23" shape="312.98,318.18,7.19 313.38,318.98,7.19 312.98,319.78,7.19 311.78,320.58,7.19" />
    </edge>
    <edge id=":CA_0" function="internal">
        <lane id=":CA_0_0" index="0" speed="3.65" length="4.67" shape="637.96,317.38,7.19 639.16,318.18,7.19 639.56,318.98,7.19 639.16,319.78,7.19 637.96,320.58,7.19" />
    </edge>
    <edge id=":CB_0" function="internal">
        <lane id=":CB_0_0" index="0" speed="3.65" length="4.67" shape="317.38,-0.00,7.19 318.18,-1.20,7.19 318.98,-1.60,7.19 319.78,-1.20,7.19 320.58,0.00,7.19" />
    </edge>
    <edge id=":CC_0" function="internal">
        <lane id=":CC_0_0" index="0" speed="3.65" length="4.67" shape="-0.00,320.58,7.19 -1.20,319.78,7.19 -1.60,318.98,7.19 -1.20,318.18,7.19 0.00,317.38,7.19" />
    </edge>
    <edge id=":D_0" function="internal">
        <lane id=":D_0_0" index="0" speed="6.51" length="9.03" shape="175.53,645.16,-2.72 175.18,642.71,-2.72 174.13,640.96,-2.72 172.38,639.91,-2.72 169.93,639.56,-2.72" />
    </edge>
    <edge id=":D_1" function="internal">
        <lane id=":D_1_0" index="0" speed="13.41" length="14.40" shape="175.53,645.16,-2.72 175.53,630.76,-2.72" />
    </edge>
    <edge id=":D_2" function="internal">
        <lane id=":D_2_0" index="0" speed="8.00" length="4.07" shape="175.53,645.16,-2.72 176.08,641.31,-2.69 176.17,641.16,-2.68" />
    </edge>
    <edge id=":D_3" function="internal">
        <lane id=":D_3_0" index="0" speed="3.65" length="1.44" shape="175.53,645.16,-2.72 176.33,643.96,-2.72" />
    </edge>
    <edge id=":D_16" function="internal">
        <lane id=":D_16_0" index="0" speed="8.00" length="10.13" shape="176.17,641.16,-2.68 177.73,638.56,-2.65 180.48,636.91,-2.62 184.33,636.36,-2.59" />
    </edge>
    <edge id=":D_17" function="internal">
        <lane id=":D_17_0" index="0" speed="3.65" length="3.23" shape="176.33,643.96,-2.72 177.13,643.56,-2.72 177.93,643.96,-2.72 178.73,645.16,-2.72" />
    </edge>
    <edge id=":D_4" function="internal">
        <lane id=":D_4_0" index="0" speed="6.51" length="9.03" shape="184.33,639.56,-2.59 181.88,639.91,-2.62 180.13,640.96,-2.65 179.08,642.71,-2.69 178.73,645.16,-2.72" />
    </edge>
    <edge id=":D_5" function="internal">
        <lane id=":D_5_0" index="0" speed="13.41" length="14.40" shape="184.33,639.56,-2.59 169.93,639.56,-2.72" />
    </edge>
    <edge id=":D_6" function="internal">
        <lane id=":D_6_0" index="0" speed="8.00" length="4.07" shape="184.33,639.56,-2.59 180.48,639.01,-2.62 180.33,638.92,-2.63" />
    </edge>
    <edge id=":D_7" function="internal">
        <lane id=":D_7_0" index="0" speed="3.65" length="1.44" shape="184.33,639.56,-2.59 183.13,638.76,-2.59" />
    </edge>
    <edge id=":D_18" function="internal">
        <lane id=":D_18_0" index="0" speed="8.00" length="10.13" shape="180.33,638.92,-2.63 177.73,637.36,-2.65 176.08,634.61,-2.69 175.53,630.76,-2.72" />
    </edge>
    <edge id=":D_19" function="internal">
        <lane id=":D_19_0" index="0" speed="3.65" length="3.23" shape="183.13,638.76,-2.59 182.73,637.96,-2.59 183.13,637.16,-2.59 184.33,636.36,-2.59" />
    </edge>
    <edge id=":D_8" function="internal">
        <lane id=":D_8_0" index="0" speed="6.51" length="9.03" shape="178.73,630.76,-2.72 179.08,633.21,-2.69 180.13,634.96,-2.65 181.88,636.01,-2.62 184.33,636.36,-2.59" />
    </edge>
    <edge id=":D_9" function="internal">
        <lane id=":D_9_0" index="0" speed="13.41" length="14.40" shape="178.73,630.76,-2.72 178.73,645.16,-2.72" />
    </edge>
    <edge id=":D_10" function="internal">
        <lane id=":D_10_0" index="0" speed="8.00" length="4.07" shape="178.73,630.76,-2.72 178.18,634.61,-2.72 178.09,634.76,-2.72" />
    </edge>
    <edge id=":D_11" function="internal">
        <lane id=":D_11_0" index="0" speed="3.65" length="1.44" shape="178.73,630.76,-2.72 177.93,631.96,-2.72" />
    </edge>
    <edge id=":D_20" function="internal">
        <lane id=":D_20_0" index="0" speed="8.00" length="10.13" shape="178.09,634.76,-2.72 176.53,637.36,-2.72 173.78,639.01,-2.72 169.93,639.56,-2.72" />
    </edge>
    <edge id=":D_21" function="internal">
        <lane id=":D_21_0" index="0" speed="3.65" length="3.23" shape="177.93,631.96,-2.72 177.13,632.36,-2.72 176.33,631.96,-2.72 175.53,630.76,-2.72" />
    </edge>
    <edge id=":D_12" function="internal">
        <lane id=":D_12_0" index="0" speed="6.51" length="9.03" shape="169.93,636.36,-2.72 172.38,636.01,-2.72 174.13,634.96,-2.72 175.18,633.21,-2.72 175.53,630.76,-2.72" />
    </edge>
    <edge id=":D_13" function="internal">
        <lane id=":D_13_0" index="0" speed="13.41" length="14.40" shape="169.93,636.36,-2.72 184.33,636.36,-2.59" />
    </edge>
    <edge id=":D_14" function="internal">
        <lane id=":D_14_0" index="0" speed="8.00" length="4.07" shape="169.93,636.36,-2.72 173.78,636.91,-2.72 173.93,637.00,-2.72" />
    </edge>
    <edge id=":D_15" function="internal">
        <lane id=":D_15_0" index="0" speed="3.65" length="1.44" shape="169.93,636.36,-2.72 171.13,637.16,-2.72" />
    </edge>
    <edge id=":D_22" function="internal">
        <lane id=":D_22_0" index="0" speed="8.00" length="10.13" shape="173.93,637.00,-2.72 176.53,638.56,-2.72 178.18,641.31,-2.72 178.73,645.16,-2.72" />
    </edge>
    <edge id=":D_23" function="internal">
        <lane id=":D_23_0" index="0" speed="3.65" length="3.23" shape="171.13,637.16,-2.72 171.53,637.96,-2.72 171.13,638.76,-2.72 169.93,639.56,-2.72" />
    </edge>
    <edge id=":DA_0" function="internal">
        <lane id=":DA_0_0" index="0" speed="3.65" length="4.67" shape="175.53,496.11,-2.72 176.33,494.91,-2.72 177.13,494.51,-2.72 177.93,494.91,-2.72 178.73,496.11,-2.72" />
    </edge>
    <edge id=":DB_0" function="internal">
        <lane id=":DB_0_0" index="0" speed="3.65" length="4.67" shape="35.28,639.56,-2.72 34.08,638.76,-2.72 33.68,637.96,-2.72 34.08,637.16,-2.72 35.28,636.36,-2.72" />
    </edge>
    <edge id=":DC_0" function="internal">
        <lane id=":DC_0_0" index="0" speed="3.65" length="4.67" shape="178.73,779.81,-2.72 177.93,781.01,-2.72 177.13,781.41,-2.72 176.33,781.01,-2.72 175.53,779.81,-2.72" />
    </edge>
    <edge id=":TL_0" function="internal">
        <lane id=":TL_0_0" index="0" speed="6.51" length="9.03" shape="317.38,645.16,0.08 317.03,642.71,0.02 315.98,640.96,-0.03 314.23,639.91,-0.08 311.78,639.56,-0.14" />
    </edge>
    <edge id=":TL_1" function="internal">
        <lane id=":TL_1_0" index="0" speed="13.41" length="14.40" shape="317.38,645.16,0.08 317.38,630.76,0.16" />
    </edge>
    <edge id=":TL_2" function="internal">
        <lane id=":TL_2_0" index="0" speed="6.51" length="9.03" shape="326.18,639.56,0.02 323.73,639.91,0.03 321.98,640.96,0.05 320.93,642.71,0.06 320.58,645.16,0.08" />
    </edge>
    <edge id=":TL_3" function="internal">
        <lane id=":TL_3_0" index="0" speed="13.41" length="14.40" shape="326.18,639.56,0.02 311.78,639.56,-0.14" />
    </edge>
    <edge id=":TL_4" function="internal">
        <lane id=":TL_4_0" index="0" speed="6.51" length="9.03" shape="320.58,630.76,0.16 320.93,633.21,0.12 321.98,634.96,0.09 323.73,636.01,0.06 326.18,636.36,0.02" />
    </edge>
    <edge id=":TL_5" function="internal">
        <lane id=":TL_5_0" index="0" speed="13.41" length="14.40" shape="320.58,630.76,0.16 320.58,645.16,0.08" />
    </edge>
    <edge id=":TL_6" function="internal">
        <lane id=":TL_6_0" index="0" speed="6.51" length="9.04" shape="311.78,636.36,-0.14 314.23,636.01,-0.06 315.98,634.96,0.01 317.03,633.21,0.08 317.38,630.76,0.16" />
    </edge>
    <edge id=":TL_7" function="internal">
        <lane id=":TL_7_0" index="0" speed="13.41" length="14.40" shape="311.78,636.36,-0.14 326.18,636.36,0.02" />
    </edge>

    <edge id="A2AA" from="A" to="AA" priority="-1">
        <lane id="A2AA_0" index="0" speed="13.41" length="311.54" shape="311.78,958.30,3.40 0.24,958.30,3.40" />
    </edge>
    <edge id="A2AB" from="A" to="AB" priority="-1">
        <lane id="A2AB_0" index="0" speed="13.41" length="311.54" shape="320.58,963.90,3.40 320.58,1275.44,3.40" />
    </edge>
    <edge id="A2AC" from="A" to="AC" priority="-1">
        <lane id="A2AC_0" index="0" speed="13.41" length="311.54" shape="326.18,955.10,3.40 637.72,955.10,3.40" />
    </edge>
    <edge id="A2TL" from="A" to="TL" priority="-1">
        <lane id="A2TL_0" index="0" speed="13.41" length="304.36" shape="317.38,949.50,3.32 317.38,645.16,0.08" />
    </edge>
    <edge id="AA2A" from="AA" to="A" priority="-1">
        <lane id="AA2A_0" index="0" speed="13.41" length="311.54" shape="0.24,955.10,3.40 311.78,955.10,3.40" />
    </edge>
    <edge id="AB2A" from="AB" to="A" priority="-1">
        <lane id="AB2A_0" index="0" speed="13.41" length="311.54" shape="317.38,1275.44,3.40 317.38,963.90,3.40" />
    </edge>
    <edge id="AC2A" from="AC" to="A" priority="-1">
        <lane id="AC2A_0" index="0" speed="13.41" length="311.54" shape="637.72,958.30,3.40 326.18,958.30,3.40" />
    </edge>
    <edge id="B2BA" from="B" to="BA" priority="-1">
        <lane id="B2BA_0" index="0" speed="13.41" length="230.91" shape="558.69,645.16,0.58 558.69,876.07,0.58" />
    </edge>
    <edge id="B2BB" from="B" to="BB" priority="-1">
        <lane id="B2BB_0" index="0" speed="13.41" length="230.91" shape="564.29,636.36,0.58 795.20,636.36,0.58" />
    </edge>
    <edge id="B2BC" from="B" to="BC" priority="-1">
        <lane id="B2BC_0" index="0" speed="13.41" length="230.91" shape="555.49,630.76,0.58 555.49,399.85,0.58" />
    </edge>
    <edge id="B2TL" from="B" to="TL" priority="-1">
        <lane id="B2TL_0" index="0" speed="13.41" length="223.71" shape="549.89,639.56,0.56 326.18,639.56,0.02" />
    </edge>
    <edge id="BA2B" from="BA" to="B" priority="-1">
        <lane id="BA2B_0" index="0" speed="13.41" length="230.91" shape="555.49,876.07,0.58 555.49,645.16,0.58" />
    </edge>
    <edge id="BB2B" from="BB" to="B" priority="-1">
        <lane id="BB2B_0" index="0" speed="13.41" length="230.91" shape="795.20,639.56,0.58 564.29,639.56,0.58" />
    </edge>
    <edge id="BC2B" from="BC" to="B" priority="-1">
        <lane id="BC2B_0" index="0" speed="13.41" length="230.91" shape="558.69,399.85,0.58 558.69,630.76,0.58" />
    </edge>
    <edge id="C2CA" from="C" to="CA" priority="-1">
        <lane id="C2CA_0" index="0" speed="13.41" length="311.78" shape="326.18,317.38,7.19 637.96,317.38,7.19" />
    </edge>
    <edge id="C2CB" from="C" to="CB" priority="-1">
        <lane id="C2CB_0" index="0" speed="13.41" length="311.78" shape="317.38,311.78,7.19 317.38,-0.00,7.19" />
    </edge>
    <edge id="C2CC" from="C" to="CC" priority="-1">
        <lane id="C2CC_0" index="0" speed="13.41" length="311.78" shape="311.78,320.58,7.19 -0.00,320.58,7.19" />
    </edge>
    <edge id="C2TL" from="C" to="TL" priority="-1">
        <lane id="C2TL_0" index="0" speed="13.41" length="304.66" shape="320.58,326.18,7.03 320.58,630.76,0.16" />
    </edge>
    <edge id="CA2C" from="CA" to="C" priority="-1">
        <lane id="CA2C_0" index="0" speed="13.41" length="311.78" shape="637.96,320.58,7.19 326.18,320.58,7.19" />
    </edge>
    <edge id="CB2C" from="CB" to="C" priority="-1">
        <lane id="CB2C_0" index="0" speed="13.41" length="311.78" shape="320.58,0.00,7.19 320.58,311.78,7.19" />
    </edge>
    <edge id="CC2C" from="CC" to="C" priority="-1">
        <lane id="CC2C_0" index="0" speed="13.41" length="311.78" shape="0.00,317.38,7.19 311.78,317.38,7.19" />
    </edge>
    <edge id="D2DA" from="D" to="DA" priority="-1">
        <lane id="D2DA_0" index="0" speed="13.41" length="134.65" shape="175.53,630.76,-2.72 175.53,496.11,-2.72" />
    </edge>
    <edge id="D2DB" from="D" to="DB" priority="-1">
        <lane id="D2DB_0" index="0" speed="13.41" length="134.65" shape="169.93,639.56,-2.72 35.28,639.56,-2.72" />
    </edge>
    <edge id="D2DC" from="D" to="DC" priority="-1">
        <lane id="D2DC_0" index="0" speed="13.41" length="134.65" shape="178.73,645.16,-2.72 178.73,779.81,-2.72" />
    </edge>
    <edge id="D2TL" from="D" to="TL" priority="-1">
        <lane id="D2TL_0" index="0" speed="13.41" length="127.47" shape="184.33,636.36,-2.59 311.78,636.36,-0.14" />
    </edge>
    <edge id="DA2D" from="DA" to="D" priority="-1">
        <lane id="DA2D_0" index="0" speed="13.41" length="134.65" shape="178.73,496.11,-2.72 178.73,630.76,-2.72" />
    </edge>
    <edge id="DB2D" from="DB" to="D" priority="-1">
        <lane id="DB2D_0" index="0" speed="13.41" length="134.65" shape="35.28,636.36,-2.72 169.93,636.36,-2.72" />
    </edge>
    <edge id="DC2D" from="DC" to="D" priority="-1">
        <lane id="DC2D_0" index="0" speed="13.41" length="134.65" shape="175.53,779.81,-2.72 175.53,645.16,-2.72" />
    </edge>
    <edge id="TL2A" from="TL" to="A" priority="-1">
        <lane id="TL2A_0" index="0" speed="13.41" length="304.36" shape="320.58,645.16,0.08 320.58,949.50,3.32" />
    </edge>
    <edge id="TL2B" from="TL" to="B" priority="-1">
        <lane id="TL2B_0" index="0" speed="13.41" length="223.71" shape="326.18,636.36,0.02 549.89,636.36,0.56" />
    </edge>
    <edge id="TL2C" from="TL" to="C" priority="-1">
        <lane id="TL2C_0" index="0" speed="13.41" length="304.66" shape="317.38,630.76,0.16 317.38,326.18,7.03" />
    </edge>
    <edge id="TL2D" from="TL" to="D" priority="-1">
        <lane id="TL2D_0" index="0" speed="13.41" length="127.47" shape="311.78,639.56,-0.14 184.33,639.56,-2.59" />
    </edge>

    <tlLogic id="A" type="static" programID="0" offset="0">
        <phase duration="42" state="GGggrrrrGGggrrrr" />
        <phase duration="3" state="yyyyrrrryyyyrrrr" />
        <phase duration="42" state="rrrrGGggrrrrGGgg" />
        <phase duration="3" state="rrrryyyyrrrryyyy" />
    </tlLogic>
    <tlLogic id="AA" type="static" programID="0" offset="0">
        <phase duration="82" state="G" />
        <phase duration="3" state="y" />
        <phase duration="5" state="r" />
    </tlLogic>
    <tlLogic id="AB" type="static" programID="0" offset="0">
        <phase duration="82" state="G" />
        <phase duration="3" state="y" />
        <phase duration="5" state="r" />
    </tlLogic>
    <tlLogic id="AC" type="static" programID="0" offset="0">
        <phase duration="82" state="G" />
        <phase duration="3" state="y" />
        <phase duration="5" state="r" />
    </tlLogic>
    <tlLogic id="B" type="static" programID="0" offset="0">
        <phase duration="42" state="GGggrrrrGGggrrrr" />
        <phase duration="3" state="yyyyrrrryyyyrrrr" />
        <phase duration="42" state="rrrrGGggrrrrGGgg" />