<net xmlns:xsi="http://www.w3.org/2001/XMLSchema-instance" version="1.9" junctionCornerDetail="5" limitTurnSpeed="5.50" xsi:noNamespaceSchemaLocation="http://sumo.dlr.de/xsd/net_file.xsd">

    <location netOffset="600.96,412.41" convBoundary="0.00,0.00,1214.93,1020.05" origBoundary="-600.96,-412.41,613.97,607.64" projParameter="!" />

    <edge id=":A_0" function="internal">
        <lane id=":A_0_0" index="0" speed="6.51" length="9.03" shape="599.36,723.43,-4.63 599.01,720.98,-4.63 597.96,719.23,-4.63 596.21,718.18,-4.63 593.76,717.83,-4.63" />
    </edge>
    <edge id=":A_1" function="internal">
        <lane id=":A_1_0" index="0" speed="8.94" length="14.40" shape="599.36,723.43,-4.63 599.36,709.03,-4.52" />
    </edge>
    <edge id=":A_2" function="internal">
        <lane id=":A_2_0" index="0" speed="8.00" length="4.07" shape="599.36,723.43,-4.63 599.91,719.58,-4.63 600.00,719.43,-4.63" />
    </edge>
    <edge id=":A_3" function="internal">
        <lane id=":A_3_0" index="0" speed="3.65" length="1.44" shape="599.36,723.43,-4.63 600.16,722.23,-4.63" />
    </edge>
    <edge id=":A_16" function="internal">
        <lane id=":A_16_0" index="0" speed="8.00" length="10.13" shape="600.00,719.43,-4.63 601.56,716.83,-4.63 604.31,715.18,-4.63 608.16,714.63,-4.63" />
    </edge>
    <edge id=":A_17" function="internal">
        <lane id=":A_17_0" index="0" speed="3.65" length="3.23" shape="600.16,722.23,-4.63 600.96,721.83,-4.63 601.76,722.23,-4.63 602.56,723.43,-4.63" />
    </edge>
    <edge id=":A_4" function="internal">
        <lane id=":A_4_0" index="0" speed="6.51" length="9.03" shape="608.16,717.83,-4.63 605.71,718.18,-4.63 603.96,719.23,-4.63 602.91,720.98,-4.63 602.56,723.43,-4.63" />
    </edge>
    <edge id=":A_5" function="internal">
        <lane id=":A_5_0" index="0" speed="8.94" length="14.40" shape="608.16,717.83,-4.63 593.76,717.83,-4.63" />
    </edge>
    <edge id=":A_6" function="internal">
        <lane id=":A_6_0" index="0" speed="8.00" length="4.07" shape="608.16,717.83,-4.63 604.31,717.28,-4.60 604.16,717.19,-4.60" />
    </edge>
    <edge id=":A_7" function="internal">
        <lane id=":A_7_0" index="0" speed="3.65" length="1.44" shape="608.16,717.83,-4.63 606.96,717.03,-4.63" />
    </edge>
    <edge id=":A_18" function="internal">
        <lane id=":A_18_0" index="0" speed="8.00" length="10.13" shape="604.16,717.19,-4.60 601.56,715.63,-4.58 599.91,712.88,-4.55 599.36,709.03,-4.52" />
    </edge>
    <edge id=":A_19" function="internal">
        <lane id=":A_19_0" index="0" speed="3.65" length="3.23" shape="606.96,717.03,-4.63 606.56,716.23,-4.63 606.96,715.43,-4.63 608.16,714.63,-4.63" />
    </edge>
    <edge id=":A_8" function="internal">
        <lane id=":A_8_0" index="0" speed="6.51" length="9.03" shape="602.56,709.03,-4.52 602.91,711.48,-4.55 603.96,713.23,-4.58 605.71,714.28,-4.60 608.16,714.63,-4.63" />
    </edge>
    <edge id=":A_9" function="internal">
        <lane id=":A_9_0" index="0" speed="8.94" length="14.40" shape="602.56,709.03,-4.52 602.56,723.43,-4.63" />
    </edge>
    <edge id=":A_10" function="internal">
        <lane id=":A_10_0" index="0" speed="8.00" length="4.07" shape="602.56,709.03,-4.52 602.01,712.88,-4.55 601.92,713.03,-4.55" />
    </edge>
    <edge id=":A_11" function="internal">
        <lane id=":A_11_0" index="0" speed="3.65" length="1.44" shape="602.56,709.03,-4.52 601.76,710.23,-4.52" />
    </edge>
    <edge id=":A_20" function="internal">
        <lane id=":A_20_0" index="0" speed="8.00" length="10.13" shape="601.92,713.03,-4.55 600.36,715.63,-4.58 597.61,717.28,-4.60 593.76,717.83,-4.63" />
    </edge>
    <edge id=":A_21" function="internal">
        <lane id=":A_21_0" index="0" speed="3.65" length="3.23" shape="601.76,710.23,-4.52 600.96,710.63,-4.52 600.16,710.23,-4.52 599.36,709.03,-4.52" />
    </edge>
    <edge id=":A_12" function="internal">
        <lane id=":A_12_0" index="0" speed="6.51" length="9.03" shape="593.76,714.63,-4.63 596.21,714.28,-4.60 597.96,713.23,-4.58 599.01,711.48,-4.55 599.36,709.03,-4.52" />
    </edge>
    <edge id=":A_13" function="internal">
        <lane id=":A_13_0" index="0" speed="8.94" length="14.40" shape="593.76,714.63,-4.63 608.16,714.63,-4.63" />
    </edge>
    <edge id=":A_14" function="internal">
        <lane id=":A_14_0" index="0" speed="8.00" length="4.07" shape="593.76,714.63,-4.63 597.61,715.18,-4.63 597.76,715.27,-4.63" />
    </edge>
    <edge id=":A_15" function="internal">
        <lane id=":A_15_0" index="0" speed="3.65" length="1.44" shape="593.76,714.63,-4.63 594.96,715.43,-4.63" />
    </edge>
    <edge id=":A_22" function="internal">
        <lane id=":A_22_0" index="0" speed="8.00" length="10.13" shape="597.76,715.27,-4.63 600.36,716.83,-4.63 602.01,719.58,-4.63 602.56,723.43,-4.63" />
    </edge>
    <edge id=":A_23" function="internal">
        <lane id=":A_23_0" index="0" speed="3.65" length="3.23" shape="594.96,715.43,-4.63 595.36,716.23,-4.63 594.96,717.03,-4.63 593.76,717.83,-4.63" />
    </edge>
    <edge id=":AA_0" function="internal">
        <lane id=":AA_0_0" index="0" speed="3.65" length="4.67" shape="297.14,717.83,-4.63 295.94,717.03,-4.63 295.54,716.23,-4.63 295.94,715.43,-4.63 297.14,714.63,-4.63" />
    </edge>
    <edge id=":AB_0" function="internal">
        <lane id=":AB_0_0" index="0" speed="3.65" length="4.67" shape="602.56,1020.05,-4.63 601.76,1021.25,-4.63 600.96,1021.65,-4.63 600.16,1021.25,-4.63 599.36,1020.05,-4.63" />
    </edge>
    <edge id=":AC_0" function="internal">
        <lane id=":AC_0_0" index="0" speed="3.65" length="4.67" shape="904.78,714.63,-4.63 905.98,715.43,-4.63 906.38,716.23,-4.63 905.98,717.03,-4.63 904.78,717.83,-4.63" />
    </edge>
    <edge id=":B_0" function="internal">
        <lane id=":B_0_0" index="0" speed="6.51" length="9.03" shape="903.15,422.81,7.48 902.80,420.36,7.48 901.75,418.61,7.48 900.00,417.56,7.48 897.55,417.21,7.48" />
    </edge>
    <edge id=":B_1" function="internal">
        <lane id=":B_1_0" index="0" speed="13.41" length="17.95" shape="903.15,422.81,7.48 903.65,416.99,7.48 904.75,412.53,7.48 905.85,408.81,7.48 906.35,405.21,7.48" />
    </edge>
    <edge id=":B_2" function="internal">
        <lane id=":B_2_0" index="0" speed="9.26" length="8.24" shape="906.35,422.81,7.48 907.10,417.56,7.48 908.61,415.05,7.48" />
    </edge>
    <edge id=":B_3" function="internal">
        <lane id=":B_3_0" index="0" speed="3.65" length="1.44" shape="906.35,422.81,7.48 907.15,421.61,7.48" />
    </edge>
    <edge id=":B_17" function="internal">
        <lane id=":B_17_0" index="0" speed="9.26" length="11.12" shape="908.61,415.05,7.48 909.35,413.81,7.48 913.10,411.56,7.48 918.35,410.81,7.48" />
    </edge>
    <edge id=":B_18" function="internal">
        <lane id=":B_18_0" index="0" speed="3.65" length="3.23" shape="907.15,421.61,7.48 907.95,421.21,7.48 908.75,421.61,7.48 909.55,422.81,7.48" />
    </edge>
    <edge id=":B_4" function="internal">
        <lane id=":B_4_0" index="0" speed="7.33" length="11.73" shape="918.35,417.21,7.48 914.50,417.56,7.48 911.75,418.61,7.48 910.10,420.36,7.48 909.55,422.81,7.48" />
    </edge>
    <edge id=":B_5" function="internal">
        <lane id=":B_5_0" index="0" speed="13.41" length="20.80" shape="918.35,417.21,7.48 897.55,417.21,7.48" />
        <lane id=":B_5_1" index="1" speed="13.41" length="20.80" shape="918.35,414.01,7.48 897.55,414.01,7.48" />
    </edge>
    <edge id=":B_7" function="internal">
        <lane id=":B_7_0" index="0" speed="8.67" length="5.56" shape="918.35,414.01,7.48 913.10,413.46,7.48 912.84,413.35,7.48" />
    </edge>
    <edge id=":B_8" function="internal">
        <lane id=":B_8_0" index="0" speed="3.65" length="1.44" shape="918.35,414.01,7.48 917.15,413.21,7.48" />
    </edge>
    <edge id=":B_19" function="internal">
        <lane id=":B_19_0" index="0" speed="8.67" length="11.29" shape="912.84,413.35,7.48 909.35,411.81,7.48 907.10,409.06,7.48 906.35,405.21,7.48" />
    </edge>
    <edge id=":B_20" function="internal">
        <lane id=":B_20_0" index="0" speed="3.65" length="3.23" shape="917.15,413.21,7.48 916.75,412.41,7.48 917.15,411.61,7.48 918.35,410.81,7.48" />
    </edge>
    <edge id=":B_9" function="internal">
        <lane id=":B_9_0" index="0" speed="6.51" length="9.03" shape="912.75,405.21,7.48 913.10,407.66,7.48 914.15,409.41,7.48 915.90,410.46,7.48 918.35,410.81,7.48" />
    </edge>
    <edge id=":B_10" function="internal">
        <lane id=":B_10_0" index="0" speed="13.41" length="17.95" shape="912.75,405.21,7.48 912.25,411.03,7.48 911.15,415.49,7.48 910.05,419.21,7.48 909.55,422.81,7.48" />
    </edge>
    <edge id=":B_11" function="internal">
        <lane id=":B_11_0" index="0" speed="8.67" length="4.68" shape="909.55,405.21,7.48 908.80,409.06,7.48 908.32,409.65,7.48" />
    </edge>
    <edge id=":B_12" function="internal">
        <lane id=":B_12_0" index="0" speed="3.65" length="1.44" shape="909.55,405.21,7.48 908.75,406.41,7.48" />
    </edge>
    <edge id=":B_21" function="internal">
        <lane id=":B_21_0" index="0" speed="8.67" length="12.17" shape="908.32,409.65,7.48 906.55,411.81,7.48 902.80,413.46,7.48 897.55,414.01,7.48" />
    </edge>
    <edge id=":B_22" function="internal">
        <lane id=":B_22_0" index="0" speed="3.65" length="3.23" shape="908.75,406.41,7.48 907.95,406.81,7.48 907.15,406.41,7.48 906.35,405.21,7.48" />
    </edge>
    <edge id=":B_13" function="internal">
        <lane id=":B_13_0" index="0" speed="7.33" length="11.73" shape="897.55,410.81,7.48 901.40,410.46,7.48 904.15,409.41,7.48 905.80,407.66,7.48 906.35,405.21,7.48" />
    </edge>
    <edge id=":B_14" function="internal">
        <lane id=":B_14_0" index="0" speed="13.41" length="20.80" shape="897.55,410.81,7.48 918.35,410.81,7.48" />
    </edge>
    <edge id=":B_15" function="internal">
        <lane id=":B_15_0" index="0" speed="9.26" length="5.01" shape="897.55,410.81,7.48 902.51,411.52,7.48" />
    </edge>
    <edge id=":B_16" function="internal">
        <lane id=":B_16_0" index="0" speed="3.65" length="1.44" shape="897.55,410.81,7.48 898.75,411.61,7.48" />
    </edge>
    <edge id=":B_23" function="internal">
        <lane id=":B_23_0" index="0" speed="9.26" length="14.34" shape="902.51,411.52,7.48 902.80,411.56,7.48 906.55,413.81,7.48 908.80,417.56,7.48 909.55,422.81,7.48" />
    </edge>
    <edge id=":B_24" function="internal">
        <lane id=":B_24_0" index="0" speed="3.65" length="3.23" shape="898.75,411.61,7.48 899.15,412.41,7.48 898.75,413.21,7.48 897.55,414.01,7.48" />
    </edge>
    <edge id=":BA_0" function="internal">
        <lane id=":BA_0_0" index="0" speed="3.65" length="4.67" shape="909.55,719.40,7.48 908.75,720.60,7.48 907.95,721.00,7.48 907.15,720.60,7.48 906.35,719.40,7.48" />
    </edge>
    <edge id=":BB_0" function="internal">
        <lane id=":BB_0_0" index="0" speed="3.65" length="4.67" shape="1214.93,410.81,7.48 1216.13,411.61,7.48 1216.53,412.41,7.48 1216.13,413.21,7.48 1214.93,414.01,7.48" />
    </edge>
    <edge id=":BC_0" function="internal">
        <lane id=":BC_0_0" index="0" speed="3.65" length="4.67" shape="906.35,105.43,7.48 907.15,104.23,7.48 907.95,103.83,7.48 908.75,104.23,7.48 909.55,105.43,7.48" />
    </edge>
    <edge id=":C_0" function="internal">
        <lane id=":C_0_0" index="0" speed="6.51" length="9.03" shape="599.36,213.41,3.09 599.01,210.96,3.12 597.96,209.21,3.15 596.21,208.16,3.17 593.76,207.81,3.21" />
    </edge>
    <edge id=":C_1" function="internal">
        <lane id=":C_1_0" index="0" speed="8.94" length="14.40" shape="599.36,213.41,3.09 599.36,199.01,3.21" />
    </edge>
    <edge id=":C_2" function="internal">
        <lane id=":C_2_0" index="0" speed="8.00" length="4.07" shape="599.36,213.41,3.09 599.91,209.56,3.12 600.00,209.40,3.13" />
    </edge>
    <edge id=":C_3" function="internal">
        <lane id=":C_3_0" index="0" speed="3.65" length="1.44" shape="599.36,213.41,3.09 600.16,212.21,3.09" />
    </edge>
    <edge id=":C_16" function="internal">
        <lane id=":C_16_0" index="0" speed="8.00" length="10.13" shape="600.00,209.40,3.13 601.56,206.81,3.15 604.31,205.16,3.17 608.16,204.61,3.21" />
    </edge>
    <edge id=":C_17" function="internal">
        <lane id=":C_17_0" index="0" speed="3.65" length="3.23" shape="600.16,212.21,3.09 600.96,211.81,3.09 601.76,212.21,3.09 602.56,213.41,3.09" />
    </edge>
    <edge id=":C_4" function="internal">
        <lane id=":C_4_0" index="0" speed="6.51" length="9.03" shape="608.16,207.81,3.21 605.71,208.16,3.17 603.96,209.21,3.15 602.91,210.96,3.12 602.56,213.41,3.09" />
    </edge>
    <edge id=":C_5" function="internal">
        <lane id=":C_5_0" index="0" speed="8.94" length="14.40" shape="608.16,207.81,3.21 593.76,207.81,3.21" />
    </edge>
    <edge id=":C_6" function="internal">
        <lane id=":C_6_0" index="0" speed="8.00" length="4.07" shape="608.16,207.81,3.21 604.31,207.26,3.21 604.16,207.17,3.21" />
    </edge>
    <edge id=":C_7" function="internal">
        <lane id=":C_7_0" index="0" speed="3.65" length="1.44" shape="608.16,207.81,3.21 606.96,207.01,3.21" />
    </edge>
    <edge id=":C_18" function="internal">
        <lane id=":C_18_0" index="0" speed="8.00" length="10.13" shape="604.16,207.17,3.21 601.56,205.61,3.21 599.91,202.86,3.21 599.36,199.01,3.21" />
    </edge>
    <edge id=":C_19" function="internal">
        <lane id=":C_19_0" index="0" speed="3.65" length="3.23" shape="606.96,207.01,3.21 606.56,206.21,3.21 606.96,205.41,3.21 608.16,204.61,3.21" />
    </edge>
    <edge id=":C_8" function="internal">
        <lane id=":C_8_0" index="0" speed="6.51" length="9.03" shape="602.56,199.01,3.21 602.91,201.46,3.21 603.96,203.21,3.21 605.71,204.26,3.21 608.16,204.61,3.21" />
    </edge>
    <edge id=":C_9" function="internal">
        <lane id=":C_9_0" index="0" speed="8.94" length="14.40" shape="602.56,199.01,3.21 602.56,213.41,3.09" />
    </edge>
    <edge id=":C_10" function="internal">
        <lane id=":C_10_0" index="0" speed="8.00" length="4.07" shape="602.56,199.01,3.21 602.01,202.86,3.21 601.92,203.01,3.21" />
    </edge>
    <edge id=":C_11" function="internal">
        <lane id=":C_11_0" index="0" speed="3.65" length="1.44" shape="602.56,199.01,3.21 601.76,200.21,3.21" />
    </edge>
    <edge id=":C_20" function="internal">
        <lane id=":C_20_0" index="0" speed="8.00" length="10.13" shape="601.92,203.01,3.21 600.36,205.61,3.21 597.61,207.26,3.21 593.76,207.81,3.21" />
    </edge>
    <edge id=":C_21" function="internal">
        <lane id=":C_21_0" index="0" speed="3.65" length="3.23" shape="601.76,200.21,3.21 600.96,200.61,3.21 600.16,200.21,3.21 599.36,199.01,3.21" />
    </edge>
    <edge id=":C_12" function="internal">
        <lane id=":C_12_0" index="0" speed="6.51" length="9.03" shape="593.76,204.61,3.21 596.21,204.26,3.21 597.96,203.21,3.21 599.01,201.46,3.21 599.36,199.01,3.21" />
    </edge>
    <edge id=":C_13" function="internal">
        <lane id=":C_13_0" index="0" speed="8.94" length="14.40" shape="593.76,204.61,3.21 608.16,204.61,3.21" />
    </edge>
    <edge id=":C_14" function="internal">
        <lane id=":C_14_0" index="0" speed="8.00" length="4.07" shape="593.76,204.61,3.21 597.61,205.16,3.17 597.76,205.25,3.17" />
    </edge>
    <edge id=":C_15" function="internal">
        <lane id=":C_15_0" index="0" speed="3.65" length="1.44" shape="593.76,204.61,3.21 594.96,205.41,3.21" />
    </edge>
    <edge id=":C_22" function="internal">
        <lane id=":C_22_0" index="0" speed="8.00" length="10.13" shape="597.76,205.25,3.17 600.36,206.81,3.15 602.01,209.56,3.12 602.56,213.41,3.09" />
    </edge>
    <edge id=":C_23" function="internal">
        <lane id=":C_23_0" index="0" speed="3.65" length="3.23" shape="594.96,205.41,3.21 595.36,206.21,3.21 594.96,207.01,3.21 593.76,207.81,3.21" />
    </edge>
    <edge id=":CA_0" function="internal">
        <lane id=":CA_0_0" index="0" speed="3.65" length="4.67" shape="807.17,204.61,3.21 808.37,205.41,3.21 808.77,206.21,3.21 808.37,207.01,3.21 807.17,207.81,3.21" />
    </edge>
    <edge id=":CB_0" function="internal">
        <lane id=":CB_0_0" index="0" speed="3.65" length="4.67" shape="599.36,0.00,3.21 600.16,-1.20,3.21 600.96,-1.60,3.21 601.76,-1.20,3.21 602.56,0.00,3.21" />
    </edge>
    <edge id=":CC_0" function="internal">
        <lane id=":CC_0_0" index="0" speed="3.65" length="4.67" shape="394.75,207.81,3.21 393.55,207.01,3.21 393.15,206.21,3.21 393.55,205.41,3.21 394.75,204.61,3.21" />
    </edge>
    <edge id=":D_0" function="internal">
        <lane id=":D_0_0" index="0" speed="6.51" length="9.03" shape="295.68,422.81,7.14 295.33,420.36,7.14 294.28,418.61,7.14 292.53,417.56,7.14 290.08,417.21,7.14" />
    </edge>
    <edge id=":D_1" function="internal">
        <lane id=":D_1_0" index="0" speed="13.41" length="20.80" shape="295.68,422.81,7.14 295.68,402.01,7.14" />
        <lane id=":D_1_1" index="1" speed="13.41" length="20.80" shape="298.88,422.81,7.14 298.88,402.01,7.14" />
    </edge>
    <edge id=":D_3" function="internal">
        <lane id=":D_3_0" index="0" speed="9.26" length="5.01" shape="298.88,422.81,7.14 299.59,417.85,7.14" />
    </edge>
    <edge id=":D_4" function="internal">
        <lane id=":D_4_0" index="0" speed="3.65" length="1.44" shape="298.88,422.81,7.14 299.68,421.61,7.14" />
    </edge>
    <edge id=":D_20" function="internal">
        <lane id=":D_20_0" index="0" speed="9.26" length="14.34" shape="299.59,417.85,7.14 299.63,417.56,7.14 301.88,413.81,7.14 305.63,411.56,7.14 310.88,410.81,7.14" />
    </edge>
    <edge id=":D_21" function="internal">
        <lane id=":D_21_0" index="0" speed="3.65" length="3.23" shape="299.68,421.61,7.14 300.48,421.21,7.14 301.28,421.61,7.14 302.08,422.81,7.14" />
    </edge>
    <edge id=":D_5" function="internal">
        <lane id=":D_5_0" index="0" speed="6.51" length="9.03" shape="310.88,417.21,7.14 308.43,417.56,7.14 306.68,418.61,7.14 305.63,420.36,7.14 305.28,422.81,7.14" />
    </edge>
    <edge id=":D_6" function="internal">
        <lane id=":D_6_0" index="0" speed="13.41" length="20.80" shape="310.88,417.21,7.14 290.08,417.21,7.14" />
        <lane id=":D_6_1" index="1" speed="13.41" length="20.80" shape="310.88,414.01,7.14 290.08,414.01,7.14" />
    </edge>
    <edge id=":D_8" function="internal">
        <lane id=":D_8_0" index="0" speed="9.26" length="5.01" shape="310.88,414.01,7.14 305.92,413.30,7.14" />
    </edge>
    <edge id=":D_9" function="internal">
        <lane id=":D_9_0" index="0" speed="3.65" length="1.44" shape="310.88,414.01,7.14 309.68,413.21,7.14" />
    </edge>
    <edge id=":D_22" function="internal">
        <lane id=":D_22_0" index="0" speed="9.26" length="14.34" shape="305.92,413.30,7.14 305.63,413.26,7.14 301.88,411.01,7.14 299.63,407.26,7.14 298.88,402.01,7.14" />
    </edge>
    <edge id=":D_23" function="internal">
        <lane id=":D_23_0" index="0" speed="3.65" length="3.23" shape="309.68,413.21,7.14 309.28,412.41,7.14 309.68,411.61,7.14 310.88,410.81,7.14" />
    </edge>
    <edge id=":D_10" function="internal">
        <lane id=":D_10_0" index="0" speed="6.51" length="9.03" shape="305.28,402.01,7.14 305.63,404.46,7.14 306.68,406.21,7.14 308.43,407.26,7.14 310.88,407.61,7.14" />
    </edge>
    <edge id=":D_11" function="internal">
        <lane id=":D_11_0" index="0" speed="13.41" length="20.80" shape="305.28,402.01,7.14 305.28,422.81,7.14" />
        <lane id=":D_11_1" index="1" speed="13.41" length="20.80" shape="302.08,402.01,7.14 302.08,422.81,7.14" />
    </edge>
    <edge id=":D_13" function="internal">
        <lane id=":D_13_0" index="0" speed="9.26" length="5.01" shape="302.08,402.01,7.14 301.37,406.98,7.14" />
    </edge>
    <edge id=":D_14" function="internal">
        <lane id=":D_14_0" index="0" speed="3.65" length="1.44" shape="302.08,402.01,7.14 301.28,403.21,7.14" />
    </edge>
    <edge id=":D_24" function="internal">
        <lane id=":D_24_0" index="0" speed="9.26" length="14.34" shape="301.37,406.98,7.14 301.33,407.26,7.14 299.08,411.01,7.14 295.33,413.26,7.14 290.08,414.01,7.14" />
    </edge>
    <edge id=":D_25" function="internal">
        <lane id=":D_25_0" index="0" speed="3.65" length="3.23" shape="301.28,403.21,7.14 300.48,403.61,7.14 299.68,403.21,7.14 298.88,402.01,7.14" />
    </edge>
    <edge id=":D_15" function="internal">
        <lane id=":D_15_0" index="0" speed="6.51" length="9.03" shape="290.08,407.61,7.14 292.53,407.26,7.14 294.28,406.21,7.14 295.33,404.46,7.14 295.68,402.01,7.14" />
    </edge>
    <edge id=":D_16" function="internal">
        <lane id=":D_16_0" index="0" speed="13.41" length="20.80" shape="290.08,407.61,7.14 310.88,407.61,7.14" />
        <lane id=":D_16_1" index="1" speed="13.41" length="20.80" shape="290.08,410.81,7.14 310.88,410.81,7.14" />
    </edge>
    <edge id=":D_18" function="internal">
        <lane id=":D_18_0" index="0" speed="9.26" length="5.01" shape="290.08,410.81,7.14 295.04,411.52,7.14" />
    </edge>
    <edge id=":D_19" function="internal">
        <lane id=":D_19_0" index="0" speed="3.65" length="1.44" shape="290.08,410.81,7.14 291.28,411.61,7.14" />
    </edge>
    <edge id=":D_26" function="internal">
        <lane id=":D_26_0" index="0" speed="9.26" length="14.34" shape="295.04,411.52,7.14 295.33,411.56,7.14 299.08,413.81,7.14 301.33,417.56,7.14 302.08,422.81,7.14" />
    </edge>
    <edge id=":D_27" function="internal">
        <lane id=":D_27_0" index="0" speed="3.65" length="3.23" shape="291.28,411.61,7.14 291.68,412.41,7.14 291.28,413.21,7.14 290.08,414.01,7.14" />
    </edge>
    <edge id=":DA_0" function="internal">
        <lane id=":DA_0_0" index="0" speed="3.65" length="4.67" shape="298.88,111.93,7.14 299.68,110.73,7.14 300.48,110.33,7.14 301.28,110.73,7.14 302.08,111.93,7.14" />
    </edge>
    <edge id=":DB_0" function="internal">
        <lane id=":DB_0_0" index="0" speed="3.65" length="4.67" shape="-0.00,414.01,7.14 -1.20,413.21,7.14 -1.60,412.41,7.14 -1.20,411.61,7.14 -0.00,410.81,7.14" />
    </edge>
    <edge id=":DC_0" function="internal">
        <lane id=":DC_0_0" index="0" speed="3.65" length="4.67" shape="302.08,712.89,7.14 301.28,714.09,7.14 300.48,714.49,7.14 299.68,714.09,7.14 298.88,712.89,7.14" />
    </edge>
    <edge id=":TL_0" function="internal">
        <lane id=":TL_0_0" index="0" speed="6.51" length="9.04" shape="599.36,422.81,-0.16 599.01,420.36,-0.07 597.96,418.61,0.01 596.21,417.56,0.08 593.76,417.21,0.17" />
    </edge>
    <edge id=":TL_1" function="internal">
        <lane id=":TL_1_0" index="0" speed="8.94" length="20.80" shape="599.36,422.81,-0.16 599.36,402.01,0.16" />
    </edge>
    <edge id=":TL_2" function="internal">
        <lane id=":TL_2_0" index="0" speed="6.51" length="9.04" shape="608.16,417.21,0.18 605.71,417.56,0.09 603.96,418.61,0.01 602.91,420.36,-0.07 602.56,422.81,-0.16" />
    </edge>
    <edge id=":TL_3" function="internal">
        <lane id=":TL_3_0" index="0" speed="13.41" length="14.40" shape="608.16,417.21,0.18 593.76,417.21,0.17" />
    </edge>
    <edge id=":TL_4" function="internal">
        <lane id=":TL_4_0" index="0" speed="8.67" length="3.71" shape="608.16,414.01,0.18 604.52,413.30,0.18" />
    </edge>
    <edge id=":TL_10" function="internal">
        <lane id=":TL_10_0" index="0" speed="8.67" length="13.14" shape="604.52,413.30,0.18 604.31,413.26,0.18 601.56,411.01,0.17 599.91,407.26,0.17 599.36,402.01,0.16" />
    </edge>
    <edge id=":TL_5" function="internal">
        <lane id=":TL_5_0" index="0" speed="7.33" length="11.73" shape="602.56,402.01,0.16 602.91,405.86,0.17 603.96,408.61,0.17 605.71,410.26,0.17 608.16,410.81,0.18" />
    </edge>
    <edge id=":TL_6" function="internal">
        <lane id=":TL_6_0" index="0" speed="8.94" length="20.80" shape="602.56,402.01,0.16 602.56,422.81,-0.16" />
    </edge>
    <edge id=":TL_7" function="internal">
        <lane id=":TL_7_0" index="0" speed="6.51" length="9.03" shape="593.76,407.61,0.18 596.21,407.26,0.17 597.96,406.21,0.17 599.01,404.46,0.17 599.36,402.01,0.16" />
    </edge>
    <edge id=":TL_8" function="internal">
        <lane id=":TL_8_0" index="0" speed="13.41" length="14.40" shape="593.76,410.81,0.18 608.16,410.81,0.18" />
    </edge>
    <edge id=":TL_9" function="internal">
        <lane id=":TL_9_0" index="0" speed="8.67" length="8.16" shape="593.76,410.81,0.18 597.61,411.56,0.10 600.36,413.81,0.03 600.63,414.44,0.01" />
    </edge>
    <edge id=":TL_11" function="internal">
        <lane id=":TL_11_0" index="0" speed="8.67" length="8.69" shape="600.63,414.44,0.01 602.01,417.56,-0.05 602.56,422.81,-0.16" />
    </edge>

    <edge id="A2AA" from="A" to="AA" priority="-1">
        <lane id="A2AA_0" index="0" speed="8.94" length="296.62" shape="593.76,717.83,-4.63 297.14,717.83,-4.63" />
    </edge>
    <edge id="A2AB" from="A" to="AB" priority="-1">
        <lane id="A2AB_0" index="0" speed="8.94" length="296.62" shape="602.56,723.43,-4.63 602.56,1020.05,-4.63" />
    </edge>
    <edge id="A2AC" from="A" to="AC" priority="-1">
        <lane id="A2AC_0" index="0" speed="8.94" length="296.62" shape="608.16,714.63,-4.63 904.78,714.63,-4.63" />
    </edge>
    <edge id="A2TL" from="A" to="TL" priority="-1">
        <lane id="A2TL_0" index="0" speed="8.94" length="286.25" shape="599.36,709.03,-4.52 599.36,422.81,-0.16" />
    </edge>
    <edge id="AA2A" from="AA" to="A" priority="-1">
        <lane id="AA2A_0" index="0" speed="8.94" length="296.62" shape="297.14,714.63,-4.63 593.76,714.63,-4.63" />
    </edge>
    <edge id="AB2A" from="AB" to="A" priority="-1">
        <lane id="AB2A_0" index="0" speed="8.94" length="296.62" shape="599.36,1020.05,-4.63 599.36,723.43,-4.63" />
    </edge>
    <edge id="AC2A" from="AC" to="A" priority="-1">
        <lane id="AC2A_0" index="0" speed="8.94" length="296.62" shape="904.78,717.83,-4.63 608.16,717.83,-4.63" />
    </edge>
    <edge id="B2BA" from="B" to="BA" priority="-1">
        <lane id="B2BA_0" index="0" speed="13.41" length="296.59" shape="909.55,422.81,7.48 909.55,719.40,7.48" />
    </edge>
    <edge id="B2BB" from="B" to="BB" priority="-1">
        <lane id="B2BB_0" index="0" speed="13.41" length="296.59" shape="918.35,410.81,7.48 1214.93,410.81,7.48" />
    </edge>
    <edge id="B2BC" from="B" to="BC" priority="-1">
        <lane id="B2BC_0" index="0" speed="13.41" length="299.79" shape="906.35,405.21,7.48 906.35,105.43,7.48" />
    </edge>
    <edge id="B2TL" from="B" to="TL" priority="-1">
        <lane id="B2TL_0" index="0" speed="13.41" length="289.48" shape="897.55,417.21,7.48 608.16,417.21,0.18" />
        <lane id="B2TL_1" index="1" speed="13.41" length="289.48" shape="897.55,414.01,7.48 608.16,414.01,0.18" />
    </edge>
    <edge id="BA2B" from="BA" to="B" priority="-1">
        <lane id="BA2B_0" index="0" speed="13.41" length="296.59" shape="903.15,719.40,7.48 903.15,422.81,7.48" />
        <lane id="BA2B_1" index="1" speed="13.41" length="296.59" shape="906.35,719.40,7.48 906.35,422.81,7.48" />
    </edge>
    <edge id="BB2B" from="BB" to="B" priority="-1">
        <lane id="BB2B_0" index="0" speed="13.41" length="296.59" shape="1214.93,417.21,7.48 918.35,417.21,7.48" />
        <lane id="BB2B_1" index="1" speed="13.41" length="296.59" shape="1214.93,414.01,7.48 918.35,414.01,7.48" />
    </edge>
    <edge id="BC2B" from="BC" to="B" priority="-1">
        <lane id="BC2B_0" index="0" speed="13.41" length="299.79" shape="912.75,105.43,7.48 912.75,405.21,7.48" />
        <lane id="BC2B_1" index="1" speed="13.41" length="299.79" shape="909.55,105.43,7.48 909.55,405.21,7.48" />
    </edge>
    <edge id="C2CA" from="C" to="CA" priority="-1">
        <lane id="C2CA_0" index="0" speed="8.94" length="199.01" shape="608.16,204.61,3.21 807.17,204.61,3.21" />
    </edge>
    <edge id="C2CB" from="C" to="CB" priority="-1">
        <lane id="C2CB_0" index="0" speed="8.94" length="199.01" shape="599.36,199.01,3.21 599.36,0.00,3.21" />
    </edge>
    <edge id="C2CC" from="C" to="CC" priority="-1">
        <lane id="C2CC_0" index="0" speed="8.94" length="199.01" shape="593.76,207.81,3.21 394.75,207.81,3.21" />
    </edge>
    <edge id="C2TL" from="C" to="TL" priority="-1">
        <lane id="C2TL_0" index="0" speed="8.94" length="188.63" shape="602.56,213.41,3.09 602.56,402.01,0.16" />
    </edge>
    <edge id="CA2C" from="CA" to="C" priority="-1">
        <lane id="CA2C_0" index="0" speed="8.94" length="199.01" shape="807.17,207.81,3.21 608.16,207.81,3.21" />
    </edge>
    <edge id="CB2C" from="CB" to="C" priority="-1">
        <lane id="CB2C_0" index="0" speed="8.94" length="199.01" shape="602.56,0.00,3.21 602.56,199.01,3.21" />
    </edge>
    <edge id="CC2C" from="CC" to="C" priority="-1">
        <lane id="CC2C_0" index="0" speed="8.94" length="199.01" shape="394.75,204.61,3.21 593.76,204.61,3.21" />
    </edge>
    <edge id="D2DA" from="D" to="DA" priority="-1">
        <lane id="D2DA_0" index="0" speed="13.41" length="290.08" shape="295.68,402.01,7.14 295.68,111.93,7.14" />
        <lane id="D2DA_1" index="1" speed="13.41" length="290.08" shape="298.88,402.01,7.14 298.88,111.93,7.14" />
    </edge>
    <edge id="D2DB" from="D" to="DB" priority="-1">
        <lane id="D2DB_0" index="0" speed="13.41" length="290.08" shape="290.08,417.21,7.14 -0.00,417.21,7.14" />
        <lane id="D2DB_1" index="1" speed="13.41" length="290.08" shape="290.08,414.01,7.14 -0.00,414.01,7.14" />
    </edge>
    <edge id="D2DC" from="D" to="DC" priority="-1">
        <lane id="D2DC_0" index="0" speed="13.41" length="290.08" shape="305.28,422.81,7.14 305.28,712.89,7.14" />
        <lane id="D2DC_1" index="1" speed="13.41" length="290.08" shape="302.08,422.81,7.14 302.08,712.89,7.14" />
    </edge>
    <edge id="D2TL" from="D" to="TL" priority="-1">
        <lane id="D2TL_0" index="0" speed="13.41" length="282.97" shape="310.88,407.61,7.14 593.76,407.61,0.18" />
        <lane id="D2TL_1" index="1" speed="13.41" length="282.97" shape="310.88,410.81,7.14 593.76,410.81,0.18" />
    </edge>