<net xmlns:xsi="http://www.w3.org/2001/XMLSchema-instance" version="1.9" junctionCornerDetail="5" limitTurnSpeed="5.50" xsi:noNamespaceSchemaLocation="http://sumo.dlr.de/xsd/net_file.xsd">

    <location netOffset="626.08,638.18" convBoundary="0.00,0.00,1222.09,1278.72" origBoundary="-626.08,-638.18,596.01,640.54" projParameter="!" />

    <edge id=":A_0" function="internal">
        <lane id=":A_0_0" index="0" speed="6.51" length="9.03" shape="618.08,972.05,-1.37 617.73,969.60,-1.37 616.68,967.85,-1.37 614.93,966.80,-1.37 612.48,966.45,-1.37" />
    </edge>
    <edge id=":A_1" function="internal">
        <lane id=":A_1_0" index="0" speed="13.41" length="27.20" shape="618.08,972.05,-1.37 618.08,944.85,-1.31" />
        <lane id=":A_1_1" index="1" speed="13.41" length="27.20" shape="621.28,972.05,-1.37 621.28,944.85,-1.31" />
        <lane id=":A_1_2" index="2" speed="13.41" length="27.20" shape="624.48,972.05,-1.37 624.48,944.85,-1.31" />
    </edge>
    <edge id=":A_4" function="internal">
        <lane id=":A_4_0" index="0" speed="10.36" length="5.01" shape="624.48,972.05,-1.37 625.19,967.08,-1.37" />
    </edge>
    <edge id=":A_5" function="internal">
        <lane id=":A_5_0" index="0" speed="3.65" length="1.44" shape="624.48,972.05,-1.37 625.28,970.85,-1.37" />
    </edge>
    <edge id=":A_24" function="internal">
        <lane id=":A_24_0" index="0" speed="10.36" length="19.50" shape="625.19,967.08,-1.37 625.43,965.40,-1.37 628.28,960.65,-1.37 633.03,957.80,-1.37 639.68,956.85,-1.37" />
    </edge>
    <edge id=":A_25" function="internal">
        <lane id=":A_25_0" index="0" speed="3.65" length="3.23" shape="625.28,970.85,-1.37 626.08,970.45,-1.37 626.88,970.85,-1.37 627.68,972.05,-1.37" />
    </edge>
    <edge id=":A_6" function="internal">
        <lane id=":A_6_0" index="0" speed="6.51" length="9.03" shape="639.68,966.45,-1.37 637.23,966.80,-1.37 635.48,967.85,-1.37 634.43,969.60,-1.37 634.08,972.05,-1.37" />
    </edge>
    <edge id=":A_7" function="internal">
        <lane id=":A_7_0" index="0" speed="13.41" length="27.20" shape="639.68,966.45,-1.37 612.48,966.45,-1.37" />
        <lane id=":A_7_1" index="1" speed="13.41" length="27.20" shape="639.68,963.25,-1.37 612.48,963.25,-1.37" />
        <lane id=":A_7_2" index="2" speed="13.41" length="27.20" shape="639.68,960.05,-1.37 612.48,960.05,-1.37" />
    </edge>
    <edge id=":A_10" function="internal">
        <lane id=":A_10_0" index="0" speed="10.36" length="5.01" shape="639.68,960.05,-1.37 634.72,959.34,-1.35" />
    </edge>
    <edge id=":A_11" function="internal">
        <lane id=":A_11_0" index="0" speed="3.65" length="1.44" shape="639.68,960.05,-1.37 638.48,959.25,-1.37" />
    </edge>
    <edge id=":A_26" function="internal">
        <lane id=":A_26_0" index="0" speed="10.36" length="19.50" shape="634.72,959.34,-1.35 633.03,959.10,-1.35 628.28,956.25,-1.34 625.43,951.50,-1.32 624.48,944.85,-1.31" />
    </edge>
    <edge id=":A_27" function="internal">
        <lane id=":A_27_0" index="0" speed="3.65" length="3.23" shape="638.48,959.25,-1.37 638.08,958.45,-1.37 638.48,957.65,-1.37 639.68,956.85,-1.37" />
    </edge>
    <edge id=":A_12" function="internal">
        <lane id=":A_12_0" index="0" speed="6.51" length="9.03" shape="634.08,944.85,-1.31 634.43,947.30,-1.32 635.48,949.05,-1.34 637.23,950.10,-1.35 639.68,950.45,-1.37" />
    </edge>
    <edge id=":A_13" function="internal">
        <lane id=":A_13_0" index="0" speed="13.41" length="27.20" shape="634.08,944.85,-1.31 634.08,972.05,-1.37" />
        <lane id=":A_13_1" index="1" speed="13.41" length="27.20" shape="630.88,944.85,-1.31 630.88,972.05,-1.37" />
        <lane id=":A_13_2" index="2" speed="13.41" length="27.20" shape="627.68,944.85,-1.31 627.68,972.05,-1.37" />
    </edge>
    <edge id=":A_16" function="internal">
        <lane id=":A_16_0" index="0" speed="10.36" length="5.01" shape="627.68,944.85,-1.31 626.98,949.81,-1.32" />
    </edge>
    <edge id=":A_17" function="internal">
        <lane id=":A_17_0" index="0" speed="3.65" length="1.44" shape="627.68,944.85,-1.31 626.88,946.05,-1.31" />
    </edge>
    <edge id=":A_28" function="internal">
        <lane id=":A_28_0" index="0" speed="10.36" length="19.50" shape="626.98,949.81,-1.32 626.73,951.50,-1.32 623.88,956.25,-1.34 619.13,959.10,-1.35 612.48,960.05,-1.37" />
    </edge>
    <edge id=":A_29" function="internal">
        <lane id=":A_29_0" index="0" speed="3.65" length="3.23" shape="626.88,946.05,-1.31 626.08,946.45,-1.31 625.28,946.05,-1.31 624.48,944.85,-1.31" />
    </edge>
    <edge id=":A_18" function="internal">
        <lane id=":A_18_0" index="0" speed="6.51" length="9.03" shape="612.48,950.45,-1.37 614.93,950.10,-1.35 616.68,949.05,-1.34 617.73,947.30,-1.32 618.08,944.85,-1.31" />
    </edge>
    <edge id=":A_19" function="internal">
        <lane id=":A_19_0" index="0" speed="13.41" length="27.20" shape="612.48,950.45,-1.37 639.68,950.45,-1.37" />
        <lane id=":A_19_1" index="1" speed="13.41" length="27.20" shape="612.48,953.65,-1.37 639.68,953.65,-1.37" />
        <lane id=":A_19_2" index="2" speed="13.41" length="27.20" shape="612.48,956.85,-1.37 639.68,956.85,-1.37" />
    </edge>
    <edge id=":A_22" function="internal">
        <lane id=":A_22_0" index="0" speed="10.36" length="5.01" shape="612.48,956.85,-1.37 617.45,957.56,-1.37" />
    </edge>
    <edge id=":A_23" function="internal">
        <lane id=":A_23_0" index="0" speed="3.65" length="1.44" shape="612.48,956.85,-1.37 613.68,957.65,-1.37" />
    </edge>
    <edge id=":A_30" function="internal">
        <lane id=":A_30_0" index="0" speed="10.36" length="19.50" shape="617.45,957.56,-1.37 619.13,957.80,-1.37 623.88,960.65,-1.37 626.73,965.40,-1.37 627.68,972.05,-1.37" />
    </edge>
    <edge id=":A_31" function="internal">
        <lane id=":A_31_0" index="0" speed="3.65" length="3.23" shape="613.68,957.65,-1.37 614.08,958.45,-1.37 613.68,959.25,-1.37 612.48,960.05,-1.37" />
    </edge>
    <edge id=":AA_0" function="internal">
        <lane id=":AA_0_0" index="0" speed="3.65" length="4.67" shape="305.82,960.05,-1.37 304.62,959.25,-1.37 304.22,958.45,-1.37 304.62,957.65,-1.37 305.82,956.85,-1.37" />
    </edge>
    <edge id=":AB_0" function="internal">
        <lane id=":AB_0_0" index="0" speed="3.65" length="4.67" shape="627.68,1278.72,-1.37 626.88,1279.92,-1.37 626.08,1280.32,-1.37 625.28,1279.92,-1.37 624.48,1278.72,-1.37" />
    </edge>
    <edge id=":AC_0" function="internal">
        <lane id=":AC_0_0" index="0" speed="3.65" length="4.67" shape="946.35,956.85,-1.37 947.55,957.65,-1.37 947.95,958.45,-1.37 947.55,959.25,-1.37 946.35,960.05,-1.37" />
    </edge>
    <edge id=":B_0" function="internal">
        <lane id=":B_0_0" index="0" speed="6.51" length="9.03" shape="907.29,626.98,1.29 909.74,626.63,1.31 911.49,625.58,1.32 912.54,623.83,1.34 912.89,621.38,1.36" />
        <lane id=":B_0_1" index="1" speed="7.33" length="11.73" shape="907.29,626.98,1.29 911.14,626.63,1.31 913.89,625.58,1.33 915.54,623.83,1.35 916.09,621.38,1.36" />
        <lane id=":B_0_2" index="2" speed="8.10" length="14.57" shape="907.29,626.98,1.29 912.54,626.63,1.31 916.29,625.58,1.33 918.54,623.83,1.35 919.29,621.38,1.36" />
        <lane id=":B_0_3" index="3" speed="8.83" length="17.50" shape="907.29,626.98,1.29 913.94,626.63,1.31 918.69,625.58,1.34 921.54,623.83,1.35 922.49,621.38,1.36" />
    </edge>
    <edge id=":B_4" function="internal">
        <lane id=":B_4_0" index="0" speed="15.65" length="33.60" shape="907.29,626.98,1.29 940.89,626.98,1.36" />
        <lane id=":B_4_1" index="1" speed="15.65" length="33.60" shape="907.29,630.18,1.29 940.89,630.18,1.36" />
        <lane id=":B_4_2" index="2" speed="15.65" length="33.60" shape="907.29,633.38,1.29 940.89,633.38,1.36" />
        <lane id=":B_4_3" index="3" speed="15.65" length="33.60" shape="907.29,636.58,1.29 940.89,636.58,1.36" />
    </edge>
    <edge id=":B_8" function="internal">
        <lane id=":B_8_0" index="0" speed="11.35" length="29.61" shape="907.29,636.58,1.29 919.54,636.93,1.32 928.29,637.98,1.34 933.54,639.73,1.35 935.29,642.18,1.36" />
        <lane id=":B_8_1" index="1" speed="10.77" length="26.54" shape="907.29,636.58,1.29 918.14,636.93,1.32 925.89,637.98,1.34 930.54,639.73,1.35 932.09,642.18,1.36" />
        <lane id=":B_8_2" index="2" speed="10.16" length="23.50" shape="907.29,636.58,1.29 916.74,636.93,1.32 923.49,637.98,1.34 927.54,639.73,1.35 928.89,642.18,1.36" />
        <lane id=":B_8_3" index="3" speed="9.51" length="20.48" shape="907.29,636.58,1.29 915.34,636.93,1.32 921.09,637.98,1.34 924.54,639.73,1.35 925.69,642.18,1.36" />
    </edge>
    <edge id=":C_0" function="internal">
        <lane id=":C_0_0" index="0" speed="6.51" length="9.03" shape="618.08,332.69,1.96 617.73,330.24,1.98 616.68,328.49,2.00 614.93,327.44,2.02 612.48,327.09,2.04" />
    </edge>
    <edge id=":C_1" function="internal">
        <lane id=":C_1_0" index="0" speed="13.41" length="27.20" shape="618.08,332.69,1.96 618.08,305.49,2.04" />
        <lane id=":C_1_1" index="1" speed="13.41" length="27.20" shape="621.28,332.69,1.96 621.28,305.49,2.04" />
        <lane id=":C_1_2" index="2" speed="13.41" length="27.20" shape="624.48,332.69,1.96 624.48,305.49,2.04" />
    </edge>
    <edge id=":C_4" function="internal">
        <lane id=":C_4_0" index="0" speed="10.36" length="5.01" shape="624.48,332.69,1.96 625.19,327.73,1.97" />
    </edge>
    <edge id=":C_5" function="internal">
        <lane id=":C_5_0" index="0" speed="3.65" length="1.44" shape="624.48,332.69,1.96 625.28,331.49,1.96" />
    </edge>
    <edge id=":C_24" function="internal">
        <lane id=":C_24_0" index="0" speed="10.36" length="19.50" shape="625.19,327.73,1.97 625.43,326.04,1.98 628.28,321.29,2.00 633.03,318.44,2.02 639.68,317.49,2.04" />
    </edge>
    <edge id=":C_25" function="internal">
        <lane id=":C_25_0" index="0" speed="3.65" length="3.23" shape="625.28,331.49,1.96 626.08,331.09,1.96 626.88,331.49,1.96 627.68,332.69,1.96" />
    </edge>
    <edge id=":C_6" function="internal">
        <lane id=":C_6_0" index="0" speed="6.51" length="9.03" shape="639.68,327.09,2.04 637.23,327.44,2.02 635.48,328.49,2.00 634.43,330.24,1.98 634.08,332.69,1.96" />
    </edge>
    <edge id=":C_7" function="internal">
        <lane id=":C_7_0" index="0" speed="13.41" length="27.20" shape="639.68,327.09,2.04 612.48,327.09,2.04" />
        <lane id=":C_7_1" index="1" speed="13.41" length="27.20" shape="639.68,323.89,2.04 612.48,323.89,2.04" />
        <lane id=":C_7_2" index="2" speed="13.41" length="27.20" shape="639.68,320.69,2.04 612.48,320.69,2.04" />
    </edge>
    <edge id=":C_10" function="internal">
        <lane id=":C_10_0" index="0" speed="10.36" length="5.01" shape="639.68,320.69,2.04 634.72,319.98,2.04" />
    </edge>
    <edge id=":C_11" function="internal">
        <lane id=":C_11_0" index="0" speed="3.65" length="1.44" shape="639.68,320.69,2.04 638.48,319.89,2.04" />
    </edge>
    <edge id=":C_26" function="internal">
        <lane id=":C_26_0" index="0" speed="10.36" length="19.50" shape="634.72,319.98,2.04 633.03,319.74,2.04 628.28,316.89,2.04 625.43,312.14,2.04 624.48,305.49,2.04" />
    </edge>
    <edge id=":C_27" function="internal">
        <lane id=":C_27_0" index="0" speed="3.65" length="3.23" shape="638.48,319.89,2.04 638.08,319.09,2.04 638.48,318.29,2.04 639.68,317.49,2.04" />
    </edge>
    <edge id=":C_12" function="internal">
        <lane id=":C_12_0" index="0" speed="6.51" length="9.03" shape="634.08,305.49,2.04 634.43,307.94,2.04 635.48,309.69,2.04 637.23,310.74,2.04 639.68,311.09,2.04" />
    </edge>
    <edge id=":C_13" function="internal">
        <lane id=":C_13_0" index="0" speed="13.41" length="27.20" shape="634.08,305.49,2.04 634.08,332.69,1.96" />
        <lane id=":C_13_1" index="1" speed="13.41" length="27.20" shape="630.88,305.49,2.04 630.88,332.69,1.96" />
        <lane id=":C_13_2" index="2" speed="13.41" length="27.20" shape="627.68,305.49,2.04 627.68,332.69,1.96" />
    </edge>
    <edge id=":C_16" function="internal">
        <lane id=":C_16_0" index="0" speed="10.36" length="5.01" shape="627.68,305.49,2.04 626.98,310.45,2.04" />
    </edge>
    <edge id=":C_17" function="internal">
        <lane id=":C_17_0" index="0" speed="3.65" length="1.44" shape="627.68,305.49,2.04 626.88,306.69,2.04" />
    </edge>
    <edge id=":C_28" function="internal">
        <lane id=":C_28_0" index="0" speed="10.36" length="19.50" shape="626.98,310.45,2.04 626.73,312.14,2.04 623.88,316.89,2.04 619.13,319.74,2.04 612.48,320.69,2.04" />
    </edge>
    <edge id=":C_29" function="internal">
        <lane id=":C_29_0" index="0" speed="3.65" length="3.23" shape="626.88,306.69,2.04 626.08,307.09,2.04 625.28,306.69,2.04 624.48,305.49,2.04" />
    </edge>
    <edge id=":C_18" function="internal">
        <lane id=":C_18_0" index="0" speed="6.51" length="9.03" shape="612.48,311.09,2.04 614.93,310.74,2.04 616.68,309.69,2.04 617.73,307.94,2.04 618.08,305.49,2.04" />
    </edge>
    <edge id=":C_19" function="internal">
        <lane id=":C_19_0" index="0" speed="13.41" length="27.20" shape="612.48,311.09,2.04 639.68,311.09,2.04" />
        <lane id=":C_19_1" index="1" speed="13.41" length="27.20" shape="612.48,314.29,2.04 639.68,314.29,2.04" />
        <lane id=":C_19_2" index="2" speed="13.41" length="27.20" shape="612.48,317.49,2.04 639.68,317.49,2.04" />
    </edge>
    <edge id=":C_22" function="internal">
        <lane id=":C_22_0" index="0" speed="10.36" length="5.01" shape="612.48,317.49,2.04 617.45,318.20,2.02" />
    </edge>
    <edge id=":C_23" function="internal">
        <lane id=":C_23_0" index="0" speed="3.65" length="1.44" shape="612.48,317.49,2.04 613.68,318.29,2.04" />
    </edge>
    <edge id=":C_30" function="internal">
        <lane id=":C_30_0" index="0" speed="10.36" length="19.50" shape="617.45,318.20,2.02 619.13,318.44,2.02 623.88,321.29,2.00 626.73,326.04,1.98 627.68,332.69,1.96" />
    </edge>
    <edge id=":C_31" function="internal">
        <lane id=":C_31_0" index="0" speed="3.65" length="3.23" shape="613.68,318.29,2.04 614.08,319.09,2.04 613.68,319.89,2.04 612.48,320.69,2.04" />
    </edge>
    <edge id=":CA_0" function="internal">
        <lane id=":CA_0_0" index="0" speed="3.65" length="4.67" shape="945.17,317.49,2.04 946.37,318.29,2.04 946.77,319.09,2.04 946.37,319.89,2.04 945.17,320.69,2.04" />
    </edge>
    <edge id=":CB_0" function="internal">
        <lane id=":CB_0_0" index="0" speed="3.65" length="4.67" shape="624.48,0.00,2.04 625.28,-1.20,2.04 626.08,-1.60,2.04 626.88,-1.20,2.04 627.68,0.00,2.04" />
    </edge>
    <edge id=":CC_0" function="internal">
        <lane id=":CC_0_0" index="0" speed="3.65" length="4.67" shape="307.00,320.69,2.04 305.80,319.89,2.04 305.40,319.09,2.04 305.80,318.29,2.04 307.00,317.49,2.04" />
    </edge>
    <edge id=":D_0" function="internal">
        <lane id=":D_0_0" index="0" speed="14.83" length="51.27" shape="295.44,642.18,2.77 297.99,632.73,2.77 305.64,625.98,2.77 318.39,621.93,2.77 336.24,620.58,2.77" />
        <lane id=":D_0_1" index="1" speed="14.09" length="46.22" shape="298.64,642.18,2.77 300.99,634.13,2.77 308.04,628.38,2.77 319.79,624.93,2.77 336.24,623.78,2.77" />
        <lane id=":D_0_2" index="2" speed="13.32" length="41.20" shape="301.84,642.18,2.77 303.99,635.53,2.77 310.44,630.78,2.77 321.19,627.93,2.77 336.24,626.98,2.77" />
        <lane id=":D_0_3" index="3" speed="12.51" length="36.23" shape="305.04,642.18,2.77 306.99,636.93,2.77 312.84,633.18,2.77 322.59,630.93,2.77 336.24,630.18,2.77" />
        <lane id=":D_0_4" index="4" speed="11.66" length="31.32" shape="308.24,642.18,2.77 309.99,638.33,2.77 315.24,635.58,2.77 323.99,633.93,2.77 336.24,633.38,2.77" />
        <lane id=":D_0_5" index="5" speed="10.77" length="26.54" shape="311.44,642.18,2.77 312.99,639.73,2.77 317.64,637.98,2.77 325.39,636.93,2.77 336.24,636.58,2.77" />
    </edge>
    <edge id=":D_6" function="internal">
        <lane id=":D_6_0" index="0" speed="6.51" length="9.03" shape="330.64,614.98,2.77 330.99,617.43,2.77 332.04,619.18,2.77 333.79,620.23,2.77 336.24,620.58,2.77" />
        <lane id=":D_6_1" index="1" speed="8.00" length="14.19" shape="327.44,614.98,2.77 327.99,618.83,2.77 329.64,621.58,2.77 332.39,623.23,2.77 336.24,623.78,2.77" />
        <lane id=":D_6_2" index="2" speed="9.26" length="19.35" shape="324.24,614.98,2.77 324.99,620.23,2.77 327.24,623.98,2.77 330.99,626.23,2.77 336.24,626.98,2.77" />
        <lane id=":D_6_3" index="3" speed="10.36" length="24.51" shape="321.04,614.98,2.77 321.99,621.63,2.77 324.84,626.38,2.77 329.59,629.23,2.77 336.24,630.18,2.77" />
        <lane id=":D_6_4" index="4" speed="11.36" length="29.67" shape="317.84,614.98,2.77 318.99,623.03,2.77 322.44,628.78,2.77 328.19,632.23,2.77 336.24,633.38,2.77" />
        <lane id=":D_6_5" index="5" speed="12.28" length="34.84" shape="314.64,614.98,2.77 315.99,624.43,2.77 320.04,631.18,2.77 326.79,635.23,2.77 336.24,636.58,2.77" />
    </edge>
    <edge id=":D_12" function="internal">
        <lane id=":D_12_0" index="0" speed="15.65" length="46.40" shape="289.84,620.58,2.77 336.24,620.58,2.77" />
        <lane id=":D_12_1" index="1" speed="15.65" length="46.40" shape="289.84,623.78,2.77 336.24,623.78,2.77" />
        <lane id=":D_12_2" index="2" speed="15.65" length="46.40" shape="289.84,626.98,2.77 336.24,626.98,2.77" />
        <lane id=":D_12_3" index="3" speed="15.65" length="46.40" shape="289.84,630.18,2.77 336.24,630.18,2.77" />
        <lane id=":D_12_4" index="4" speed="15.65" length="46.40" shape="289.84,633.38,2.77 336.24,633.38,2.77" />
        <lane id=":D_12_5" index="5" speed="15.65" length="46.40" shape="289.84,636.58,2.77 336.24,636.58,2.77" />
    </edge>
    <edge id=":TL_0" function="internal">
        <lane id=":TL_0_0" index="0" speed="13.41" length="27.20" shape="618.08,642.18,-0.02 618.08,614.98,0.15" />
        <lane id=":TL_0_1" index="1" speed="13.41" length="27.20" shape="621.28,642.18,-0.02 621.28,614.98,0.15" />
        <lane id=":TL_0_2" index="2" speed="13.41" length="27.20" shape="624.48,642.18,-0.02 624.48,614.98,0.15" />
    </edge>
    <edge id=":TL_3" function="internal">
        <lane id=":TL_3_0" index="0" speed="8.83" length="2.10" shape="624.48,642.18,-0.02 625.25,640.22,-0.01" />
    </edge>
    <edge id=":TL_14" function="internal">
        <lane id=":TL_14_0" index="0" speed="8.83" length="15.39" shape="625.25,640.22,-0.01 625.43,639.73,-0.01 628.28,637.98,0.01 633.03,636.93,0.03 639.68,636.58,0.06" />
    </edge>
    <edge id=":TL_4" function="internal">
        <lane id=":TL_4_0" index="0" speed="8.10" length="14.57" shape="634.08,614.98,0.15 634.43,620.23,0.12 635.48,623.98,0.09 637.23,626.23,0.08 639.68,626.98,0.06" />
    </edge>
    <edge id=":TL_5" function="internal">
        <lane id=":TL_5_0" index="0" speed="13.41" length="27.20" shape="634.08,614.98,0.15 634.08,642.18,-0.02" />
        <lane id=":TL_5_1" index="1" speed="13.41" length="27.20" shape="630.88,614.98,0.15 630.88,642.18,-0.02" />
        <lane id=":TL_5_2" index="2" speed="13.41" length="27.20" shape="627.68,614.98,0.15 627.68,642.18,-0.02" />
    </edge>
    <edge id=":TL_8" function="internal">
        <lane id=":TL_8_0" index="0" speed="6.51" length="9.03" shape="612.48,620.58,0.13 614.93,620.23,0.13 616.68,619.18,0.14 617.73,617.43,0.14 618.08,614.98,0.15" />
    </edge>
    <edge id=":TL_9" function="internal">
        <lane id=":TL_9_0" index="0" speed="15.65" length="27.45" shape="612.48,623.78,0.13 620.59,624.28,0.11 626.08,625.38,0.10 631.58,626.48,0.08 639.68,626.98,0.06" />
        <lane id=":TL_9_1" index="1" speed="15.65" length="27.45" shape="612.48,626.98,0.13 620.59,627.48,0.11 626.08,628.58,0.10 631.58,629.68,0.08 639.68,630.18,0.06" />
        <lane id=":TL_9_2" index="2" speed="15.65" length="27.45" shape="612.48,630.18,0.13 620.59,630.68,0.11 626.08,631.78,0.10 631.58,632.88,0.08 639.68,633.38,0.06" />
        <lane id=":TL_9_3" index="3" speed="15.65" length="27.45" shape="612.48,633.38,0.13 620.59,633.88,0.11 626.08,634.98,0.10 631.58,636.08,0.08 639.68,636.58,0.06" />
    </edge>
    <edge id=":TL_13" function="internal">
        <lane id=":TL_13_0" index="0" speed="8.83" length="17.50" shape="612.48,636.58,0.13 619.13,636.93,0.07 623.88,637.98,0.03 626.73,639.73,0.00 627.68,642.18,-0.02" />
    </edge>

    <edge id="A2AA" from="A" to="AA" priority="-1">
        <lane id="A2AA_0" index="0" speed="13.41" length="306.67" shape="612.48,966.45,-1.37 305.82,966.45,-1.37" />
        <lane id="A2AA_1" index="1" speed="13.41" length="306.67" shape="612.48,963.25,-1.37 305.82,963.25,-1.37" />
        <lane id="A2AA_2" index="2" speed="13.41" length="306.67" shape="612.48,960.05,-1.37 305.82,960.05,-1.37" />
    </edge>
    <edge id="A2AB" from="A" to="AB" priority="-1">
        <lane id="A2AB_0" index="0" speed="13.41" length="306.67" shape="634.08,972.05,-1.37 634.08,1278.72,-1.37" />
        <lane id="A2AB_1" index="1" speed="13.41" length="306.67" shape="630.88,972.05,-1.37 630.88,1278.72,-1.37" />
        <lane id="A2AB_2" index="2" speed="13.41" length="306.67" shape="627.68,972.05,-1.37 627.68,1278.72,-1.37" />
    </edge>
    <edge id="A2AC" from="A" to="AC" priority="-1">
        <lane id="A2AC_0" index="0" speed="13.41" length="306.67" shape="639.68,950.45,-1.37 946.35,950.45,-1.37" />
        <lane id="A2AC_1" index="1" speed="13.41" length="306.67" shape="639.68,953.65,-1.37 946.35,953.65,-1.37" />
        <lane id="A2AC_2" index="2" speed="13.41" length="306.67" shape="639.68,956.85,-1.37 946.35,956.85,-1.37" />
    </edge>
    <edge id="A2TL" from="A" to="TL" priority="-1">
        <lane id="A2TL_0" index="0" speed="13.41" length="302.67" shape="618.08,944.85,-1.31 618.08,642.18,-0.02" />
        <lane id="A2TL_1" index="1" speed="13.41" length="302.67" shape="621.28,944.85,-1.31 621.28,642.18,-0.02" />
        <lane id="A2TL_2" index="2" speed="13.41" length="302.67" shape="624.48,944.85,-1.31 624.48,642.18,-0.02" />
    </edge>
    <edge id="AA2A" from="AA" to="A" priority="-1">
        <lane id="AA2A_0" index="0" speed="13.41" length="306.67" shape="305.82,950.45,-1.37 612.48,950.45,-1.37" />
        <lane id="AA2A_1" index="1" speed="13.41" length="306.67" shape="305.82,953.65,-1.37 612.48,953.65,-1.37" />
        <lane id="AA2A_2" index="2" speed="13.41" length="306.67" shape="305.82,956.85,-1.37 612.48,956.85,-1.37" />
    </edge>
    <edge id="AB2A" from="AB" to="A" priority="-1">
        <lane id="AB2A_0" index="0" speed="13.41" length="306.67" shape="618.08,1278.72,-1.37 618.08,972.05,-1.37" />
        <lane id="AB2A_1" index="1" speed="13.41" length="306.67" shape="621.28,1278.72,-1.37 621.28,972.05,-1.37" />
        <lane id="AB2A_2" index="2" speed="13.41" length="306.67" shape="624.48,1278.72,-1.37 624.48,972.05,-1.37" />
    </edge>
    <edge id="AC2A" from="AC" to="A" priority="-1">
        <lane id="AC2A_0" index="0" speed="13.41" length="306.67" shape="946.35,966.45,-1.37 639.68,966.45,-1.37" />
        <lane id="AC2A_1" index="1" speed="13.41" length="306.67" shape="946.35,963.25,-1.37 639.68,963.25,-1.37" />
        <lane id="AC2A_2" index="2" speed="13.41" length="306.67" shape="946.35,960.05,-1.37 639.68,960.05,-1.37" />
    </edge>
    <edge id="B2BA" from="B" to="BA" priority="-1">
        <lane id="B2BA_0" index="0" speed="15.65" length="294.00" shape="935.29,642.18,1.36 935.29,936.18,1.36" />
        <lane id="B2BA_1" index="1" speed="15.65" length="294.00" shape="932.09,642.18,1.36 932.09,936.18,1.36" />
        <lane id="B2BA_2" index="2" speed="15.65" length="294.00" shape="928.89,642.18,1.36 928.89,936.18,1.36" />
        <lane id="B2BA_3" index="3" speed="15.65" length="294.00" shape="925.69,642.18,1.36 925.69,936.18,1.36" />
    </edge>
    <edge id="B2BB" from="B" to="BB" priority="-1">
        <lane id="B2BB_0" index="0" speed="15.65" length="281.20" shape="940.89,626.98,1.36 1222.09,626.98,1.36" />
        <lane id="B2BB_1" index="1" speed="15.65" length="281.20" shape="940.89,630.18,1.36 1222.09,630.18,1.36" />
        <lane id="B2BB_2" index="2" speed="15.65" length="281.20" shape="940.89,633.38,1.36 1222.09,633.38,1.36" />
        <lane id="B2BB_3" index="3" speed="15.65" length="281.20" shape="940.89,636.58,1.36 1222.09,636.58,1.36" />
    </edge>
    <edge id="B2BC" from="B" to="BC" priority="-1">
        <lane id="B2BC_0" index="0" speed="15.65" length="281.20" shape="912.89,621.38,1.36 912.89,340.17,1.36" />
        <lane id="B2BC_1" index="1" speed="15.65" length="281.20" shape="916.09,621.38,1.36 916.09,340.17,1.36" />
        <lane id="B2BC_2" index="2" speed="15.65" length="281.20" shape="919.29,621.38,1.36 919.29,340.17,1.36" />
        <lane id="B2BC_3" index="3" speed="15.65" length="281.20" shape="922.49,621.38,1.36 922.49,340.17,1.36" />
    </edge>
    <edge id="C2CA" from="C" to="CA" priority="-1">
        <lane id="C2CA_0" index="0" speed="13.41" length="305.49" shape="639.68,311.09,2.04 945.17,311.09,2.04" />
        <lane id="C2CA_1" index="1" speed="13.41" length="305.49" shape="639.68,314.29,2.04 945.17,314.29,2.04" />
        <lane id="C2CA_2" index="2" speed="13.41" length="305.49" shape="639.68,317.49,2.04 945.17,317.49,2.04" />
    </edge>
    <edge id="C2CB" from="C" to="CB" priority="-1">
        <lane id="C2CB_0" index="0" speed="13.41" length="305.49" shape="618.08,305.49,2.04 618.08,0.00,2.04" />
        <lane id="C2CB_1" index="1" speed="13.41" length="305.49" shape="621.28,305.49,2.04 621.28,0.00,2.04" />
        <lane id="C2CB_2" index="2" speed="13.41" length="305.49" shape="624.48,305.49,2.04 624.48,0.00,2.04" />
    </edge>
    <edge id="C2CC" from="C" to="CC" priority="-1">
        <lane id="C2CC_0" index="0" speed="13.41" length="305.49" shape="612.48,327.09,2.04 307.00,327.09,2.04" />
        <lane id="C2CC_1" index="1" speed="13.41" length="305.49" shape="612.48,323.89,2.04 307.00,323.89,2.04" />
        <lane id="C2CC_2" index="2" speed="13.41" length="305.49" shape="612.48,320.69,2.04 307.00,320.69,2.04" />
    </edge>
    <edge id="C2TL" from="C" to="TL" priority="-1">
        <lane id="C2TL_0" index="0" speed="13.41" length="282.29" shape="634.08,332.69,1.96 634.08,614.98,0.15" />
        <lane id="C2TL_1" index="1" speed="13.41" length="282.29" shape="630.88,332.69,1.96 630.88,614.98,0.15" />
        <lane id="C2TL_2" index="2" speed="13.41" length="282.29" shape="627.68,332.69,1.96 627.68,614.98,0.15" />
    </edge>
    <edge id="CA2C" from="CA" to="C" priority="-1">
        <lane id="CA2C_0" index="0" speed="13.41" length="305.49" shape="945.17,327.09,2.04 639.68,327.09,2.04" />
        <lane id="CA2C_1" index="1" speed="13.41" length="305.49" shape="945.17,323.89,2.04 639.68,323.89,2.04" />
        <lane id="CA2C_2" index="2" speed="13.41" length="305.49" shape="945.17,320.69,2.04 639.68,320.69,2.04" />
    </edge>
    <edge id="CB2C" from="CB" to="C" priority="-1">
        <lane id="CB2C_0" index="0" speed="13.41" length="305.49" shape="634.08,0.00,2.04 634.08,305.49,2.04" />
        <lane id="CB2C_1" index="1" speed="13.41" length="305.49" shape="630.88,0.00,2.04 630.88,305.49,2.04" />
        <lane id="CB2C_2" index="2" speed="13.41" length="305.49" shape="627.68,0.00,2.04 627.68,305.49,2.04" />
    </edge>
    <edge id="CC2C" from="CC" to="C" priority="-1">
        <lane id="CC2C_0" index="0" speed="13.41" length="305.49" shape="307.00,311.09,2.04 612.48,311.09,2.04" />
        <lane id="CC2C_1" index="1" speed="13.41" length="305.49" shape="307.00,314.29,2.04 612.48,314.29,2.04" />
        <lane id="CC2C_2" index="2" speed="13.41" length="305.49" shape="307.00,317.49,2.04 612.48,317.49,2.04" />
    </edge>
    <edge id="D2TL" from="D" to="TL" priority="-1">
        <lane id="D2TL_0" index="0" speed="15.65" length="276.25" shape="336.24,620.58,2.77 612.48,620.58,0.13" />
        <lane id="D2TL_1" index="1" speed="15.65" length="276.25" shape="336.24,623.78,2.77 612.48,623.78,0.13" />
        <lane id="D2TL_2" index="2" speed="15.65" length="276.25" shape="336.24,626.98,2.77 612.48,626.98,0.13" />
        <lane id="D2TL_3" index="3" speed="15.65" length="276.25" shape="336.24,630.18,2.77 612.48,630.18,0.13" />
        <lane id="D2TL_4" index="4" speed="15.65" length="276.25" shape="336.24,633.38,2.77 612.48,633.38,0.13" />
        <lane id="D2TL_5" index="5" speed="15.65" length="276.25" shape="336.24,636.58,2.77 612.48,636.58,0.13" />
    </edge>
    <edge id="DA2D" from="DA" to="D" priority="-1">
        <lane id="DA2D_0" index="0" speed="15.65" length="289.84" shape="330.64,325.14,2.77 330.64,614.98,2.77" />
        <lane id="DA2D_1" index="1" speed="15.65" length="289.84" shape="327.44,325.14,2.77 327.44,614.98,2.77" />
        <lane id="DA2D_2" index="2" speed="15.65" length="289.84" shape="324.24,325.14,2.77 324.24,614.98,2.77" />
        <lane id="DA2D_3" index="3" speed="15.65" length="289.84" shape="321.04,325.14,2.77 321.04,614.98,2.77" />
        <lane id="DA2D_4" index="4" speed="15.65" length="289.84" shape="317.84,325.14,2.77 317.84,614.98,2.77" />
        <lane id="DA2D_5" index="5" speed="15.65" length="289.84" shape="314.64,325.14,2.77 314.64,614.98,2.77" />
    </edge>
    <edge id="DB2D" from="DB" to="D" priority="-1">
        <lane id="DB2D_0" index="0" speed="15.65" length="289.84" shape="0.00,620.58,2.77 289.84,620.58,2.77" />
        <lane id="DB2D_1" index="1" speed="15.65" length="289.84" shape="0.00,623.78,2.77 289.84,623.78,2.77" />
        <lane id="DB2D_2" index="2" speed="15.65" length="289.84" shape="0.00,626.98,2.77 289.84,626.98,2.77" />
        <lane id="DB2D_3" index="3" speed="15.65" length="289.84" shape="0.00,630.18,2.77 289.84,630.18,2.77" />
        <lane id="DB2D_4" index="4" speed="15.65" length="289.84" shape="0.00,633.38,2.77 289.84,633.38,2.77" />
        <lane id="DB2D_5" index="5" speed="15.65" length="289.84" shape="0.00,636.58,2.77 289.84,636.58,2.77" />
    </edge>