<net xmlns:xsi="http://www.w3.org/2001/XMLSchema-instance" version="1.9" junctionCornerDetail="5" limitTurnSpeed="5.50" xsi:noNamespaceSchemaLocation="http://sumo.dlr.de/xsd/net_file.xsd">

    <location netOffset="1273.25,636.63" convBoundary="0.00,0.00,1907.96,1277.81" origBoundary="-1273.25,-636.63,634.71,641.18" projParameter="!" />

    <edge id=":A_0" function="internal">
        <lane id=":A_0_0" index="0" speed="6.51" length="9.03" shape="1268.45,967.62 1268.10,965.17 1267.05,963.42 1265.30,962.37 1262.85,962.02" />
    </edge>
    <edge id=":A_1" function="internal">
        <lane id=":A_1_0" index="0" speed="15.65" length="20.80" shape="1268.45,967.62 1268.45,946.82" />
        <lane id=":A_1_1" index="1" speed="15.65" length="20.80" shape="1271.65,967.62 1271.65,946.82" />
    </edge>
    <edge id=":A_3" function="internal">
        <lane id=":A_3_0" index="0" speed="9.26" length="5.01" shape="1271.65,967.62 1272.36,962.65" />
    </edge>
    <edge id=":A_4" function="internal">
        <lane id=":A_4_0" index="0" speed="3.65" length="1.44" shape="1271.65,967.62 1272.45,966.42" />
    </edge>
    <edge id=":A_20" function="internal">
        <lane id=":A_20_0" index="0" speed="9.26" length="14.34" shape="1272.36,962.65 1272.40,962.37 1274.65,958.62 1278.40,956.37 1283.65,955.62" />
    </edge>
    <edge id=":A_21" function="internal">
        <lane id=":A_21_0" index="0" speed="3.65" length="3.23" shape="1272.45,966.42 1273.25,966.02 1274.05,966.42 1274.85,967.62" />
    </edge>
    <edge id=":A_5" function="internal">
        <lane id=":A_5_0" index="0" speed="6.51" length="9.03" shape="1283.65,962.02 1281.20,962.37 1279.45,963.42 1278.40,965.17 1278.05,967.62" />
    </edge>
    <edge id=":A_6" function="internal">
        <lane id=":A_6_0" index="0" speed="15.65" length="20.80" shape="1283.65,962.02 1262.85,962.02" />
        <lane id=":A_6_1" index="1" speed="15.65" length="20.80" shape="1283.65,958.82 1262.85,958.82" />
    </edge>
    <edge id=":A_8" function="internal">
        <lane id=":A_8_0" index="0" speed="9.26" length="5.01" shape="1283.65,958.82 1278.69,958.11" />
    </edge>
    <edge id=":A_9" function="internal">
        <lane id=":A_9_0" index="0" speed="3.65" length="1.44" shape="1283.65,958.82 1282.45,958.02" />
    </edge>
    <edge id=":A_22" function="internal">
        <lane id=":A_22_0" index="0" speed="9.26" length="14.34" shape="1278.69,958.11 1278.40,958.07 1274.65,955.82 1272.40,952.07 1271.65,946.82" />
    </edge>
    <edge id=":A_23" function="internal">
        <lane id=":A_23_0" index="0" speed="3.65" length="3.23" shape="1282.45,958.02 1282.05,957.22 1282.45,956.42 1283.65,955.62" />
    </edge>
    <edge id=":A_10" function="internal">
        <lane id=":A_10_0" index="0" speed="6.51" length="9.03" shape="1278.05,946.82 1278.40,949.27 1279.45,951.02 1281.20,952.07 1283.65,952.42" />
    </edge>
    <edge id=":A_11" function="internal">
        <lane id=":A_11_0" index="0" speed="15.65" length="20.80" shape="1278.05,946.82 1278.05,967.62" />
        <lane id=":A_11_1" index="1" speed="15.65" length="20.80" shape="1274.85,946.82 1274.85,967.62" />
    </edge>
    <edge id=":A_13" function="internal">
        <lane id=":A_13_0" index="0" speed="9.26" length="5.01" shape="1274.85,946.82 1274.14,951.78" />
    </edge>
    <edge id=":A_14" function="internal">
        <lane id=":A_14_0" index="0" speed="3.65" length="1.44" shape="1274.85,946.82 1274.05,948.02" />
    </edge>
    <edge id=":A_24" function="internal">
        <lane id=":A_24_0" index="0" speed="9.26" length="14.34" shape="1274.14,951.78 1274.10,952.07 1271.85,955.82 1268.10,958.07 1262.85,958.82" />
    </edge>
    <edge id=":A_25" function="internal">
        <lane id=":A_25_0" index="0" speed="3.65" length="3.23" shape="1274.05,948.02 1273.25,948.42 1272.45,948.02 1271.65,946.82" />
    </edge>
    <edge id=":A_15" function="internal">
        <lane id=":A_15_0" index="0" speed="6.51" length="9.03" shape="1262.85,952.42 1265.30,952.07 1267.05,951.02 1268.10,949.27 1268.45,946.82" />
    </edge>
    <edge id=":A_16" function="internal">
        <lane id=":A_16_0" index="0" speed="15.65" length="20.80" shape="1262.85,952.42 1283.65,952.42" />
        <lane id=":A_16_1" index="1" speed="15.65" length="20.80" shape="1262.85,955.62 1283.65,955.62" />
    </edge>
    <edge id=":A_18" function="internal">
        <lane id=":A_18_0" index="0" speed="9.26" length="5.01" shape="1262.85,955.62 1267.81,956.33" />
    </edge>
    <edge id=":A_19" function="internal">
        <lane id=":A_19_0" index="0" speed="3.65" length="1.44" shape="1262.85,955.62 1264.05,956.42" />
    </edge>
    <edge id=":A_26" function="internal">
        <lane id=":A_26_0" index="0" speed="9.26" length="14.34" shape="1267.81,956.33 1268.10,956.37 1271.85,958.62 1274.10,962.37 1274.85,967.62" />
    </edge>
    <edge id=":A_27" function="internal">
        <lane id=":A_27_0" index="0" speed="3.65" length="3.23" shape="1264.05,956.42 1264.45,957.22 1264.05,958.02 1262.85,958.82" />
    </edge>
    <edge id=":AA_0" function="internal">
        <lane id=":AA_0_0" index="0" speed="3.65" length="4.67" shape="952.66,958.82 951.46,958.02 951.06,957.22 951.46,956.42 952.66,955.62" />
    </edge>
    <edge id=":AB_0" function="internal">
        <lane id=":AB_0_0" index="0" speed="3.65" length="4.67" shape="1274.85,1277.81 1274.05,1279.01 1273.25,1279.41 1272.45,1279.01 1271.65,1277.81" />
    </edge>
    <edge id=":AC_0" function="internal">
        <lane id=":AC_0_0" index="0" speed="3.65" length="4.67" shape="1593.84,955.62 1595.04,956.42 1595.44,957.22 1595.04,958.02 1593.84,958.82" />
    </edge>
    <edge id=":A_intern_0" function="internal">
        <lane id=":A_intern_0_0" index="0" speed="15.65" length="8.54" shape="1268.45,690.63 1267.95,688.16 1266.85,686.63 1265.75,685.09 1265.25,682.63" />
        <lane id=":A_intern_0_1" index="1" speed="15.65" length="8.54" shape="1271.65,690.63 1271.15,688.16 1270.05,686.63 1268.95,685.09 1268.45,682.63" />
        <lane id=":A_intern_0_2" index="2" speed="15.65" length="8.54" shape="1271.65,690.63 1271.65,682.63" />
    </edge>
    <edge id=":B_0" function="internal">
        <lane id=":B_0_0" index="0" speed="6.51" length="9.03" shape="1589.01,643.83,-0.10 1588.66,641.38,-0.10 1587.61,639.63,-0.10 1585.86,638.58,-0.10 1583.41,638.23,-0.09" />
    </edge>
    <edge id=":B_1" function="internal">
        <lane id=":B_1_0" index="0" speed="11.18" length="14.40" shape="1589.01,643.83,-0.10 1589.01,629.43,-0.10" />
    </edge>
    <edge id=":B_2" function="internal">
        <lane id=":B_2_0" index="0" speed="8.00" length="4.07" shape="1589.01,643.83,-0.10 1589.56,639.98,-0.10 1589.65,639.82,-0.10" />
    </edge>
    <edge id=":B_3" function="internal">
        <lane id=":B_3_0" index="0" speed="3.65" length="1.44" shape="1589.01,643.83,-0.10 1589.81,642.63,-0.10" />
    </edge>
    <edge id=":B_16" function="internal">
        <lane id=":B_16_0" index="0" speed="8.00" length="10.13" shape="1589.65,639.82,-0.10 1591.21,637.23,-0.10 1593.96,635.58,-0.10 1597.81,635.03,-0.10" />
    </edge>
    <edge id=":B_17" function="internal">
        <lane id=":B_17_0" index="0" speed="3.65" length="3.23" shape="1589.81,642.63,-0.10 1590.61,642.23,-0.10 1591.41,642.63,-0.10 1592.21,643.83,-0.10" />
    </edge>
    <edge id=":B_4" function="internal">
        <lane id=":B_4_0" index="0" speed="6.51" length="9.03" shape="1597.81,638.23,-0.10 1595.36,638.58,-0.10 1593.61,639.63,-0.10 1592.56,641.38,-0.10 1592.21,643.83,-0.10" />
    </edge>
    <edge id=":B_5" function="internal">
        <lane id=":B_5_0" index="0" speed="11.18" length="14.40" shape="1597.81,638.23,-0.10 1583.41,638.23,-0.09" />
    </edge>
    <edge id=":B_6" function="internal">
        <lane id=":B_6_0" index="0" speed="8.00" length="4.07" shape="1597.81,638.23,-0.10 1593.96,637.68,-0.10 1593.80,637.58,-0.10" />
    </edge>
    <edge id=":B_7" function="internal">
        <lane id=":B_7_0" index="0" speed="3.65" length="1.44" shape="1597.81,638.23,-0.10 1596.61,637.43,-0.10" />
    </edge>
    <edge id=":B_18" function="internal">
        <lane id=":B_18_0" index="0" speed="8.00" length="10.13" shape="1593.80,637.58,-0.10 1591.21,636.03,-0.10 1589.56,633.28,-0.10 1589.01,629.43,-0.10" />
    </edge>
    <edge id=":B_19" function="internal">
        <lane id=":B_19_0" index="0" speed="3.65" length="3.23" shape="1596.61,637.43,-0.10 1596.21,636.63,-0.10 1596.61,635.83,-0.10 1597.81,635.03,-0.10" />
    </edge>
    <edge id=":B_8" function="internal">
        <lane id=":B_8_0" index="0" speed="6.51" length="9.03" shape="1592.21,629.43,-0.10 1592.56,631.88,-0.10 1593.61,633.63,-0.10 1595.36,634.68,-0.10 1597.81,635.03,-0.10" />
    </edge>
    <edge id=":B_9" function="internal">
        <lane id=":B_9_0" index="0" speed="11.18" length="14.40" shape="1592.21,629.43,-0.10 1592.21,643.83,-0.10" />
    </edge>
    <edge id=":B_10" function="internal">
        <lane id=":B_10_0" index="0" speed="8.00" length="4.07" shape="1592.21,629.43,-0.10 1591.66,633.28,-0.10 1591.56,633.43,-0.10" />
    </edge>
    <edge id=":B_11" function="internal">
        <lane id=":B_11_0" index="0" speed="3.65" length="1.44" shape="1592.21,629.43,-0.10 1591.41,630.63,-0.10" />
    </edge>
    <edge id=":B_20" function="internal">
        <lane id=":B_20_0" index="0" speed="8.00" length="10.13" shape="1591.56,633.43,-0.10 1590.01,636.03,-0.10 1587.26,637.68,-0.10 1583.41,638.23,-0.09" />
    </edge>
    <edge id=":B_21" function="internal">
        <lane id=":B_21_0" index="0" speed="3.65" length="3.23" shape="1591.41,630.63,-0.10 1590.61,631.03,-0.10 1589.81,630.63,-0.10 1589.01,629.43,-0.10" />
    </edge>
    <edge id=":B_12" function="internal">
        <lane id=":B_12_0" index="0" speed="6.51" length="9.03" shape="1583.41,635.03,-0.09 1585.86,634.68,-0.10 1587.61,633.63,-0.10 1588.66,631.88,-0.10 1589.01,629.43,-0.10" />
    </edge>
    <edge id=":B_13" function="internal">
        <lane id=":B_13_0" index="0" speed="11.18" length="14.40" shape="1583.41,635.03,-0.09 1597.81,635.03,-0.10" />
    </edge>
    <edge id=":B_14" function="internal">
        <lane id=":B_14_0" index="0" speed="8.00" length="4.07" shape="1583.41,635.03,-0.09 1587.26,635.58,-0.10 1587.41,635.67,-0.10" />
    </edge>
    <edge id=":B_15" function="internal">
        <lane id=":B_15_0" index="0" speed="3.65" length="1.44" shape="1583.41,635.03,-0.09 1584.61,635.83,-0.09" />
    </edge>
    <edge id=":B_22" function="internal">
        <lane id=":B_22_0" index="0" speed="8.00" length="10.13" shape="1587.41,635.67,-0.10 1590.01,637.23,-0.10 1591.66,639.98,-0.10 1592.21,643.83,-0.10" />
    </edge>
    <edge id=":B_23" function="internal">
        <lane id=":B_23_0" index="0" speed="3.65" length="3.23" shape="1584.61,635.83,-0.09 1585.01,636.63,-0.09 1584.61,637.43,-0.09 1583.41,638.23,-0.09" />
    </edge>
    <edge id=":BA_0" function="internal">
        <lane id=":BA_0_0" index="0" speed="3.65" length="4.67" shape="1592.21,953.98,-0.10 1591.41,955.18,-0.10 1590.61,955.58,-0.10 1589.81,955.18,-0.10 1589.01,953.98,-0.10" />
    </edge>
    <edge id=":BB_0" function="internal">
        <lane id=":BB_0_0" index="0" speed="3.65" length="4.67" shape="1907.96,635.03,-0.10 1909.16,635.83,-0.10 1909.56,636.63,-0.10 1909.16,637.43,-0.10 1907.96,638.23,-0.10" />
    </edge>
    <edge id=":BC_0" function="internal">
        <lane id=":BC_0_0" index="0" speed="3.65" length="4.67" shape="1589.01,319.27,-0.10 1589.81,318.07,-0.10 1590.61,317.67,-0.10 1591.41,318.07,-0.10 1592.21,319.27,-0.10" />
    </edge>
    <edge id=":B_intern_0" function="internal">
        <lane id=":B_intern_0_0" index="0" speed="11.18" length="8.40" shape="1327.25,638.23,-0.02 1324.79,638.73,-0.02 1323.25,639.83,-0.02 1321.71,640.93,-0.01 1319.25,641.43,-0.01" />
        <lane id=":B_intern_0_1" index="1" speed="11.18" length="8.40" shape="1327.25,638.23,-0.02 1319.25,638.23,-0.01" />
    </edge>
    <edge id=":C_0" function="internal">
        <lane id=":C_0_0" index="0" speed="6.51" length="9.03" shape="1268.45,330.32 1268.10,327.87 1267.05,326.12 1265.30,325.07 1262.85,324.72" />
    </edge>
    <edge id=":C_1" function="internal">
        <lane id=":C_1_0" index="0" speed="15.65" length="20.80" shape="1268.45,330.32 1268.45,309.52" />
        <lane id=":C_1_1" index="1" speed="15.65" length="20.80" shape="1271.65,330.32 1271.65,309.52" />
    </edge>
    <edge id=":C_3" function="internal">
        <lane id=":C_3_0" index="0" speed="9.26" length="5.01" shape="1271.65,330.32 1272.36,325.35" />
    </edge>
    <edge id=":C_4" function="internal">
        <lane id=":C_4_0" index="0" speed="3.65" length="1.44" shape="1271.65,330.32 1272.45,329.12" />
    </edge>
    <edge id=":C_20" function="internal">
        <lane id=":C_20_0" index="0" speed="9.26" length="14.34" shape="1272.36,325.35 1272.40,325.07 1274.65,321.32 1278.40,319.07 1283.65,318.32" />
    </edge>
    <edge id=":C_21" function="internal">
        <lane id=":C_21_0" index="0" speed="3.65" length="3.23" shape="1272.45,329.12 1273.25,328.72 1274.05,329.12 1274.85,330.32" />
    </edge>
    <edge id=":C_5" function="internal">
        <lane id=":C_5_0" index="0" speed="6.51" length="9.03" shape="1283.65,324.72 1281.20,325.07 1279.45,326.12 1278.40,327.87 1278.05,330.32" />
    </edge>
    <edge id=":C_6" function="internal">
        <lane id=":C_6_0" index="0" speed="15.65" length="20.80" shape="1283.65,324.72 1262.85,324.72" />
        <lane id=":C_6_1" index="1" speed="15.65" length="20.80" shape="1283.65,321.52 1262.85,321.52" />
    </edge>
    <edge id=":C_8" function="internal">
        <lane id=":C_8_0" index="0" speed="9.26" length="5.01" shape="1283.65,321.52 1278.69,320.81" />
    </edge>
    <edge id=":C_9" function="internal">
        <lane id=":C_9_0" index="0" speed="3.65" length="1.44" shape="1283.65,321.52 1282.45,320.72" />
    </edge>
    <edge id=":C_22" function="internal">
        <lane id=":C_22_0" index="0" speed="9.26" length="14.34" shape="1278.69,320.81 1278.40,320.77 1274.65,318.52 1272.40,314.77 1271.65,309.52" />
    </edge>
    <edge id=":C_23" function="internal">
        <lane id=":C_23_0" index="0" speed="3.65" length="3.23" shape="1282.45,320.72 1282.05,319.92 1282.45,319.12 1283.65,318.32" />
    </edge>
    <edge id=":C_10" function="internal">
        <lane id=":C_10_0" index="0" speed="6.51" length="9.03" shape="1278.05,309.52 1278.40,311.97 1279.45,313.72 1281.20,314.77 1283.65,315.12" />
    </edge>
    <edge id=":C_11" function="internal">
        <lane id=":C_11_0" index="0" speed="15.65" length="20.80" shape="1278.05,309.52 1278.05,330.32" />
        <lane id=":C_11_1" index="1" speed="15.65" length="20.80" shape="1274.85,309.52 1274.85,330.32" />
    </edge>
    <edge id=":C_13" function="internal">
        <lane id=":C_13_0" index="0" speed="9.26" length="5.01" shape="1274.85,309.52 1274.14,314.48" />
    </edge>
    <edge id=":C_14" function="internal">
        <lane id=":C_14_0" index="0" speed="3.65" length="1.44" shape="1274.85,309.52 1274.05,310.72" />
    </edge>
    <edge id=":C_24" function="internal">
        <lane id=":C_24_0" index="0" speed="9.26" length="14.34" shape="1274.14,314.48 1274.10,314.77 1271.85,318.52 1268.10,320.77 1262.85,321.52" />
    </edge>
    <edge id=":C_25" function="internal">
        <lane id=":C_25_0" index="0" speed="3.65" length="3.23" shape="1274.05,310.72 1273.25,311.12 1272.45,310.72 1271.65,309.52" />
    </edge>
    <edge id=":C_15" function="internal">
        <lane id=":C_15_0" index="0" speed="6.51" length="9.03" shape="1262.85,315.12 1265.30,314.77 1267.05,313.72 1268.10,311.97 1268.45,309.52" />
    </edge>
    <edge id=":C_16" function="internal">
        <lane id=":C_16_0" index="0" speed="15.65" length="20.80" shape="1262.85,315.12 1283.65,315.12" />
        <lane id=":C_16_1" index="1" speed="15.65" length="20.80" shape="1262.85,318.32 1283.65,318.32" />
    </edge>
    <edge id=":C_18" function="internal">
        <lane id=":C_18_0" index="0" speed="9.26" length="5.01" shape="1262.85,318.32 1267.81,319.03" />
    </edge>
    <edge id=":C_19" function="internal">
        <lane id=":C_19_0" index="0" speed="3.65" length="1.44" shape="1262.85,318.32 1264.05,319.12" />
    </edge>
    <edge id=":C_26" function="internal">
        <lane id=":C_26_0" index="0" speed="9.26" length="14.34" shape="1267.81,319.03 1268.10,319.07 1271.85,321.32 1274.10,325.07 1274.85,330.32" />
    </edge>
    <edge id=":C_27" function="internal">
        <lane id=":C_27_0" index="0" speed="3.65" length="3.23" shape="1264.05,319.12 1264.45,319.92 1264.05,320.72 1262.85,321.52" />
    </edge>
    <edge id=":CA_0" function="internal">
        <lane id=":CA_0_0" index="0" speed="3.65" length="4.67" shape="1589.96,318.32 1591.16,319.12 1591.56,319.92 1591.16,320.72 1589.96,321.52" />
    </edge>
    <edge id=":CB_0" function="internal">
        <lane id=":CB_0_0" index="0" speed="3.65" length="4.67" shape="1271.65,3.21 1272.45,2.01 1273.25,1.61 1274.05,2.01 1274.85,3.21" />
    </edge>
    <edge id=":CC_0" function="internal">
        <lane id=":CC_0_0" index="0" speed="3.65" length="4.67" shape="956.54,321.52 955.34,320.72 954.94,319.92 955.34,319.12 956.54,318.32" />
    </edge>
    <edge id=":C_intern_0" function="internal">
        <lane id=":C_intern_0_0" index="0" speed="15.65" length="8.54" shape="1278.05,582.63 1278.55,585.09 1279.65,586.63 1280.75,588.16 1281.25,590.63" />
        <lane id=":C_intern_0_1" index="1" speed="15.65" length="8.54" shape="1274.85,582.63 1275.35,585.09 1276.45,586.63 1277.55,588.16 1278.05,590.63" />
        <lane id=":C_intern_0_2" index="2" speed="15.65" length="8.54" shape="1274.85,582.63 1274.85,590.63" />
    </edge>
    <edge id=":D_0" function="internal">
        <lane id=":D_0_0" index="0" speed="6.51" length="9.03" shape="631.83,647.03 631.48,644.58 630.43,642.83 628.68,641.78 626.23,641.43" />
    </edge>
    <edge id=":D_1" function="internal">
        <lane id=":D_1_0" index="0" speed="13.41" length="20.80" shape="631.83,647.03 631.83,626.23" />
        <lane id=":D_1_1" index="1" speed="13.41" length="20.80" shape="635.03,647.03 635.03,626.23" />
    </edge>
    <edge id=":D_3" function="internal">
        <lane id=":D_3_0" index="0" speed="9.26" length="5.01" shape="635.03,647.03 635.73,642.06" />
    </edge>
    <edge id=":D_4" function="internal">
        <lane id=":D_4_0" index="0" speed="3.65" length="1.44" shape="635.03,647.03 635.83,645.83" />
    </edge>
    <edge id=":D_20" function="internal">
        <lane id=":D_20_0" index="0" speed="9.26" length="14.34" shape="635.73,642.06 635.78,641.78 638.03,638.03 641.78,635.78 647.03,635.03" />
    </edge>
    <edge id=":D_21" function="internal">
        <lane id=":D_21_0" index="0" speed="3.65" length="3.23" shape="635.83,645.83 636.63,645.43 637.43,645.83 638.23,647.03" />
    </edge>
    <edge id=":D_5" function="internal">
        <lane id=":D_5_0" index="0" speed="6.51" length="9.03" shape="647.03,641.43 644.58,641.78 642.83,642.83 641.78,644.58 641.43,647.03" />
    </edge>
    <edge id=":D_6" function="internal">
        <lane id=":D_6_0" index="0" speed="13.41" length="20.80" shape="647.03,641.43 626.23,641.43" />
        <lane id=":D_6_1" index="1" speed="13.41" length="20.80" shape="647.03,638.23 626.23,638.23" />
    </edge>
    <edge id=":D_8" function="internal">
        <lane id=":D_8_0" index="0" speed="9.26" length="5.01" shape="647.03,638.23 642.06,637.52" />
    </edge>
    <edge id=":D_9" function="internal">
        <lane id=":D_9_0" index="0" speed="3.65" length="1.44" shape="647.03,638.23 645.83,637.43" />
    </edge>
    <edge id=":D_22" function="internal">
        <lane id=":D_22_0" index="0" speed="9.26" length="14.34" shape="642.06,637.52 641.78,637.48 638.03,635.23 635.78,631.48 635.03,626.23" />
    </edge>
    <edge id=":D_23" function="internal">
        <lane id=":D_23_0" index="0" speed="3.65" length="3.23" shape="645.83,637.43 645.43,636.63 645.83,635.83 647.03,635.03" />
    </edge>
    <edge id=":D_10" function="internal">
        <lane id=":D_10_0" index="0" speed="6.51" length="9.03" shape="641.43,626.23 641.78,628.68 642.83,630.43 644.58,631.48 647.03,631.83" />
    </edge>
    <edge id=":D_11" function="internal">
        <lane id=":D_11_0" index="0" speed="13.41" length="20.80" shape="641.43,626.23 641.43,647.03" />
        <lane id=":D_11_1" index="1" speed="13.41" length="20.80" shape="638.23,626.23 638.23,647.03" />
    </edge>
    <edge id=":D_13" function="internal">
        <lane id=":D_13_0" index="0" speed="9.26" length="5.01" shape="638.23,626.23 637.52,631.19" />
    </edge>
    <edge id=":D_14" function="internal">
        <lane id=":D_14_0" index="0" speed="3.65" length="1.44" shape="638.23,626.23 637.43,627.43" />
    </edge>
    <edge id=":D_24" function="internal">
        <lane id=":D_24_0" index="0" speed="9.26" length="14.34" shape="637.52,631.19 637.48,631.48 635.23,635.23 631.48,637.48 626.23,638.23" />
    </edge>
    <edge id=":D_25" function="internal">
        <lane id=":D_25_0" index="0" speed="3.65" length="3.23" shape="637.43,627.43 636.63,627.83 635.83,627.43 635.03,626.23" />
    </edge>
    <edge id=":D_15" function="internal">
        <lane id=":D_15_0" index="0" speed="6.51" length="9.03" shape="626.23,631.83 628.68,631.48 630.43,630.43 631.48,628.68 631.83,626.23" />
    </edge>
    <edge id=":D_16" function="internal">
        <lane id=":D_16_0" index="0" speed="13.41" length="20.80" shape="626.23,631.83 647.03,631.83" />
        <lane id=":D_16_1" index="1" speed="13.41" length="20.80" shape="626.23,635.03 647.03,635.03" />
    </edge>
    <edge id=":D_18" function="internal">
        <lane id=":D_18_0" index="0" speed="9.26" length="5.01" shape="626.23,635.03 631.19,635.73" />
    </edge>
    <edge id=":D_19" function="internal">
        <lane id=":D_19_0" index="0" speed="3.65" length="1.44" shape="626.23,635.03 627.43,635.83" />
    </edge>
    <edge id=":D_26" function="internal">
        <lane id=":D_26_0" index="0" speed="9.26" length="14.34" shape="631.19,635.73 631.48,635.78 635.23,638.03 637.48,641.78 638.23,647.03" />
    </edge>
    <edge id=":D_27" function="internal">
        <lane id=":D_27_0" index="0" speed="3.65" length="3.23" shape="627.43,635.83 627.83,636.63 627.43,637.43 626.23,638.23" />
    </edge>
    <edge id=":DA_0" function="internal">
        <lane id=":DA_0_0" index="0" speed="3.65" length="4.67" shape="635.03,0.00 635.83,-1.20 636.63,-1.60 637.43,-1.20 638.23,0.00" />
    </edge>
    <edge id=":DB_0" function="internal">
        <lane id=":DB_0_0" index="0" speed="3.65" length="4.67" shape="0.00,638.23 -1.20,637.43 -1.60,636.63 -1.20,635.83 0.00,635.03" />
    </edge>
    <edge id=":DC_0" function="internal">
        <lane id=":DC_0_0" index="0" speed="3.65" length="4.67" shape="638.23,1273.25 637.43,1274.45 636.63,1274.85 635.83,1274.45 635.03,1273.25" />
    </edge>
    <edge id=":TL_0" function="internal">
        <lane id=":TL_0_0" index="0" speed="6.51" length="9.03" shape="1265.25,647.03 1264.90,644.58 1263.85,642.83 1262.10,641.78 1259.65,641.43" />
    </edge>
    <edge id=":TL_1" function="internal">
        <lane id=":TL_1_0" index="0" speed="15.65" length="21.12" shape="1265.25,647.03 1265.75,640.74 1266.85,636.43 1267.95,632.21 1268.45,626.23" />
        <lane id=":TL_1_1" index="1" speed="15.65" length="21.12" shape="1268.45,647.03 1268.95,640.74 1270.05,636.43 1271.15,632.21 1271.65,626.23" />
    </edge>
    <edge id=":TL_3" function="internal">
        <lane id=":TL_3_0" index="0" speed="9.84" length="5.50" shape="1271.65,647.03 1272.60,641.78,-0.00 1272.70,641.64,-0.00" />
    </edge>
    <edge id=":TL_15" function="internal">
        <lane id=":TL_15_0" index="0" speed="9.84" length="16.49" shape="1272.70,641.64,-0.00 1275.45,638.03,-0.00 1280.20,635.78,-0.00 1286.85,635.03,-0.00" />
    </edge>
    <edge id=":TL_4" function="internal">
        <lane id=":TL_4_0" index="0" speed="7.33" length="11.73" shape="1286.85,641.43,-0.00 1283.00,641.78,-0.00 1280.25,642.83,-0.00 1278.60,644.58,-0.00 1278.05,647.03" />
    </edge>
    <edge id=":TL_5" function="internal">
        <lane id=":TL_5_0" index="0" speed="12.29" length="27.20" shape="1286.85,641.43,-0.00 1259.65,641.43" />
    </edge>
    <edge id=":TL_6" function="internal">
        <lane id=":TL_6_0" index="0" speed="9.84" length="6.30" shape="1286.85,638.23,-0.00 1280.59,637.52,-0.00" />
    </edge>
    <edge id=":TL_16" function="internal">
        <lane id=":TL_16_0" index="0" speed="9.84" length="15.70" shape="1280.59,637.52,-0.00 1280.20,637.48,-0.00 1275.45,635.23,-0.00 1272.60,631.48,-0.00 1271.65,626.23" />
    </edge>
    <edge id=":TL_7" function="internal">
        <lane id=":TL_7_0" index="0" speed="7.33" length="11.73" shape="1281.25,626.23 1281.60,630.08,-0.00 1282.65,632.83,-0.00 1284.40,634.48,-0.00 1286.85,635.03,-0.00" />
    </edge>
    <edge id=":TL_8" function="internal">
        <lane id=":TL_8_0" index="0" speed="15.65" length="21.12" shape="1281.25,626.23 1280.75,632.51 1279.65,636.82 1278.55,641.04 1278.05,647.03" />
        <lane id=":TL_8_1" index="1" speed="15.65" length="21.12" shape="1278.05,626.23 1277.55,632.51 1276.45,636.82 1275.35,641.04 1274.85,647.03" />
    </edge>
    <edge id=":TL_10" function="internal">
        <lane id=":TL_10_0" index="0" speed="9.84" length="5.50" shape="1274.85,626.23 1273.90,631.48 1273.80,631.61" />
    </edge>
    <edge id=":TL_17" function="internal">
        <lane id=":TL_17_0" index="0" speed="9.84" length="16.49" shape="1273.80,631.61 1271.05,635.23 1266.30,637.48 1259.65,638.23" />
    </edge>
    <edge id=":TL_11" function="internal">
        <lane id=":TL_11_0" index="0" speed="7.33" length="11.73" shape="1259.65,631.83 1263.50,631.48 1266.25,630.43 1267.90,628.68 1268.45,626.23" />
    </edge>
    <edge id=":TL_12" function="internal">
        <lane id=":TL_12_0" index="0" speed="12.29" length="27.30" shape="1259.65,631.83 1267.42,632.33,-0.00 1275.13,633.43,-0.00 1281.90,634.53,-0.00 1286.85,635.03,-0.00" />
        <lane id=":TL_12_1" index="1" speed="12.29" length="27.30" shape="1259.65,635.03 1286.85,635.03,-0.00" />
    </edge>
    <edge id=":TL_14" function="internal">
        <lane id=":TL_14_0" index="0" speed="9.84" length="12.79" shape="1259.65,635.03 1266.30,635.78 1271.05,638.03 1271.56,638.69" />
    </edge>
    <edge id=":TL_18" function="internal">
        <lane id=":TL_18_0" index="0" speed="9.84" length="9.21" shape="1271.56,638.69 1273.90,641.78 1274.85,647.03" />
    </edge>

    <edge id="A2AA" from="A" to="AA" priority="-1">
        <lane id="A2AA_0" index="0" speed="15.65" length="310.19" shape="1262.85,962.02 952.66,962.02" />
        <lane id="A2AA_1" index="1" speed="15.65" length="310.19" shape="1262.85,958.82 952.66,958.82" />
    </edge>
    <edge id="A2AB" from="A" to="AB" priority="-1">
        <lane id="A2AB_0" index="0" speed="15.65" length="310.19" shape="1278.05,967.62 1278.05,1277.81" />
        <lane id="A2AB_1" index="1" speed="15.65" length="310.19" shape="1274.85,967.62 1274.85,1277.81" />
    </edge>
    <edge id="A2AC" from="A" to="AC" priority="-1">
        <lane id="A2AC_0" index="0" speed="15.65" length="310.19" shape="1283.65,952.42 1593.84,952.42" />
        <lane id="A2AC_1" index="1" speed="15.65" length="310.19" shape="1283.65,955.62 1593.84,955.62" />
    </edge>
    <edge id="A2TL" from="A" to="A_intern" priority="-1">
        <lane id="A2TL_0" index="0" speed="15.65" length="256.19" shape="1268.45,946.82 1268.45,690.63" />
        <lane id="A2TL_1" index="1" speed="15.65" length="256.19" shape="1271.65,946.82 1271.65,690.63" />
    </edge>
    <edge id="A2TL_intern" from="A_intern" to="TL" priority="-1">
        <lane id="A2TL_intern_0" index="0" speed="15.65" length="35.60" shape="1265.25,682.63 1265.25,647.03" />
        <lane id="A2TL_intern_1" index="1" speed="15.65" length="35.60" shape="1268.45,682.63 1268.45,647.03" />
        <lane id="A2TL_intern_2" index="2" speed="15.65" length="35.60" shape="1271.65,682.63 1271.65,647.03" />
    </edge>
    <edge id="AA2A" from="AA" to="A" priority="-1">
        <lane id="AA2A_0" index="0" speed="15.65" length="310.19" shape="952.66,952.42 1262.85,952.42" />
        <lane id="AA2A_1" index="1" speed="15.65" length="310.19" shape="952.66,955.62 1262.85,955.62" />
    </edge>
    <edge id="AB2A" from="AB" to="A" priority="-1">
        <lane id="AB2A_0" index="0" speed="15.65" length="310.19" shape="1268.45,1277.81 1268.45,967.62" />
        <lane id="AB2A_1" index="1" speed="15.65" length="310.19" shape="1271.65,1277.81 1271.65,967.62" />
    </edge>
    <edge id="AC2A" from="AC" to="A" priority="-1">
        <lane id="AC2A_0" index="0" speed="15.65" length="310.19" shape="1593.84,962.02 1283.65,962.02" />
        <lane id="AC2A_1" index="1" speed="15.65" length="310.19" shape="1593.84,958.82 1283.65,958.82" />
    </edge>
    <edge id="B2BA" from="B" to="BA" priority="-1">
        <lane id="B2BA_0" index="0" speed="11.18" length="310.16" shape="1592.21,643.83,-0.10 1592.21,953.98,-0.10" />
    </edge>
    <edge id="B2BB" from="B" to="BB" priority="-1">
        <lane id="B2BB_0" index="0" speed="11.18" length="310.16" shape="1597.81,635.03,-0.10 1907.96,635.03,-0.10" />
    </edge>
    <edge id="B2BC" from="B" to="BC" priority="-1">
        <lane id="B2BC_0" index="0" speed="11.18" length="310.16" shape="1589.01,629.43,-0.10 1589.01,319.27,-0.10" />
    </edge>
    <edge id="B2TL" from="B" to="B_intern" priority="-1">
        <lane id="B2TL_0" index="0" speed="11.18" length="256.16" shape="1583.41,638.23,-0.09 1327.25,638.23,-0.02" />
    </edge>
    <edge id="B2TL_intern" from="B_intern" to="TL" priority="-1">
        <lane id="B2TL_intern_0" index="0" speed="11.18" length="32.40" shape="1319.25,641.43,-0.01 1286.85,641.43,-0.00" />