<net xmlns:xsi="http://www.w3.org/2001/XMLSchema-instance" version="1.9" junctionCornerDetail="5" limitTurnSpeed="5.50" xsi:noNamespaceSchemaLocation="http://sumo.dlr.de/xsd/net_file.xsd">

    <location netOffset="638.16,1276.32" convBoundary="0.00,0.00,2041.20,1979.36" origBoundary="-638.16,-1276.32,1403.04,703.04" projParameter="!" />

    <edge id=":A_0" function="internal">
        <lane id=":A_0_0" index="0" speed="6.51" length="9.03" shape="633.36,1605.22,-1.16 633.01,1602.77,-1.16 631.96,1601.02,-1.16 630.21,1599.97,-1.16 627.76,1599.62,-1.16" />
    </edge>
    <edge id=":A_1" function="internal">
        <lane id=":A_1_0" index="0" speed="13.41" length="20.80" shape="633.36,1605.22,-1.16 633.36,1584.42,-1.13" />
        <lane id=":A_1_1" index="1" speed="13.41" length="20.80" shape="636.56,1605.22,-1.16 636.56,1584.42,-1.13" />
    </edge>
    <edge id=":A_3" function="internal">
        <lane id=":A_3_0" index="0" speed="9.26" length="5.01" shape="636.56,1605.22,-1.16 637.27,1600.26,-1.16" />
    </edge>
    <edge id=":A_4" function="internal">
        <lane id=":A_4_0" index="0" speed="3.65" length="1.44" shape="636.56,1605.22,-1.16 637.36,1604.02,-1.16" />
    </edge>
    <edge id=":A_20" function="internal">
        <lane id=":A_20_0" index="0" speed="9.26" length="14.34" shape="637.27,1600.26,-1.16 637.31,1599.97,-1.16 639.56,1596.22,-1.16 643.31,1593.97,-1.16 648.56,1593.22,-1.16" />
    </edge>
    <edge id=":A_21" function="internal">
        <lane id=":A_21_0" index="0" speed="3.65" length="3.23" shape="637.36,1604.02,-1.16 638.16,1603.62,-1.16 638.96,1604.02,-1.16 639.76,1605.22,-1.16" />
    </edge>
    <edge id=":A_5" function="internal">
        <lane id=":A_5_0" index="0" speed="6.51" length="9.03" shape="648.56,1599.62,-1.16 646.11,1599.97,-1.16 644.36,1601.02,-1.16 643.31,1602.77,-1.16 642.96,1605.22,-1.16" />
    </edge>
    <edge id=":A_6" function="internal">
        <lane id=":A_6_0" index="0" speed="13.41" length="20.80" shape="648.56,1599.62,-1.16 627.76,1599.62,-1.16" />
        <lane id=":A_6_1" index="1" speed="13.41" length="20.80" shape="648.56,1596.42,-1.16 627.76,1596.42,-1.16" />
    </edge>
    <edge id=":A_8" function="internal">
        <lane id=":A_8_0" index="0" speed="9.26" length="5.01" shape="648.56,1596.42,-1.16 643.60,1595.71,-1.16" />
    </edge>
    <edge id=":A_9" function="internal">
        <lane id=":A_9_0" index="0" speed="3.65" length="1.44" shape="648.56,1596.42,-1.16 647.36,1595.62,-1.16" />
    </edge>
    <edge id=":A_22" function="internal">
        <lane id=":A_22_0" index="0" speed="9.26" length="14.34" shape="643.60,1595.71,-1.16 643.31,1595.67,-1.15 639.56,1593.42,-1.15 637.31,1589.67,-1.14 636.56,1584.42,-1.13" />
    </edge>
    <edge id=":A_23" function="internal">
        <lane id=":A_23_0" index="0" speed="3.65" length="3.23" shape="647.36,1595.62,-1.16 646.96,1594.82,-1.16 647.36,1594.02,-1.16 648.56,1593.22,-1.16" />
    </edge>
    <edge id=":A_10" function="internal">
        <lane id=":A_10_0" index="0" speed="6.51" length="9.03" shape="642.96,1584.42,-1.13 643.31,1586.87,-1.14 644.36,1588.62,-1.15 646.11,1589.67,-1.15 648.56,1590.02,-1.16" />
    </edge>
    <edge id=":A_11" function="internal">
        <lane id=":A_11_0" index="0" speed="13.41" length="20.80" shape="642.96,1584.42,-1.13 642.96,1605.22,-1.16" />
        <lane id=":A_11_1" index="1" speed="13.41" length="20.80" shape="639.76,1584.42,-1.13 639.76,1605.22,-1.16" />
    </edge>
    <edge id=":A_13" function="internal">
        <lane id=":A_13_0" index="0" speed="9.26" length="5.01" shape="639.76,1584.42,-1.13 639.05,1589.38,-1.14" />
    </edge>
    <edge id=":A_14" function="internal">
        <lane id=":A_14_0" index="0" speed="3.65" length="1.44" shape="639.76,1584.42,-1.13 638.96,1585.62,-1.13" />
    </edge>
    <edge id=":A_24" function="internal">
        <lane id=":A_24_0" index="0" speed="9.26" length="14.34" shape="639.05,1589.38,-1.14 639.01,1589.67,-1.14 636.76,1593.42,-1.15 633.01,1595.67,-1.15 627.76,1596.42,-1.16" />
    </edge>
    <edge id=":A_25" function="internal">
        <lane id=":A_25_0" index="0" speed="3.65" length="3.23" shape="638.96,1585.62,-1.13 638.16,1586.02,-1.13 637.36,1585.62,-1.13 636.56,1584.42,-1.13" />
    </edge>
    <edge id=":A_15" function="internal">
        <lane id=":A_15_0" index="0" speed="6.51" length="9.03" shape="627.76,1590.02,-1.16 630.21,1589.67,-1.15 631.96,1588.62,-1.15 633.01,1586.87,-1.14 633.36,1584.42,-1.13" />
    </edge>
    <edge id=":A_16" function="internal">
        <lane id=":A_16_0" index="0" speed="13.41" length="20.80" shape="627.76,1590.02,-1.16 648.56,1590.02,-1.16" />
        <lane id=":A_16_1" index="1" speed="13.41" length="20.80" shape="627.76,1593.22,-1.16 648.56,1593.22,-1.16" />
    </edge>
    <edge id=":A_18" function="internal">
        <lane id=":A_18_0" index="0" speed="9.26" length="5.01" shape="627.76,1593.22,-1.16 632.72,1593.93,-1.16" />
    </edge>
    <edge id=":A_19" function="internal">
        <lane id=":A_19_0" index="0" speed="3.65" length="1.44" shape="627.76,1593.22,-1.16 628.96,1594.02,-1.16" />
    </edge>
    <edge id=":A_26" function="internal">
        <lane id=":A_26_0" index="0" speed="9.26" length="14.34" shape="632.72,1593.93,-1.16 633.01,1593.97,-1.16 636.76,1596.22,-1.16 639.01,1599.97,-1.16 639.76,1605.22,-1.16" />
    </edge>
    <edge id=":A_27" function="internal">
        <lane id=":A_27_0" index="0" speed="3.65" length="3.23" shape="628.96,1594.02,-1.16 629.36,1594.82,-1.16 628.96,1595.62,-1.16 627.76,1596.42,-1.16" />
    </edge>
    <edge id=":AA_0" function="internal">
        <lane id=":AA_0_0" index="0" speed="3.65" length="4.67" shape="319.66,1596.42,-1.16 318.46,1595.62,-1.16 318.06,1594.82,-1.16 318.46,1594.02,-1.16 319.66,1593.22,-1.16" />
    </edge>
    <edge id=":AB_0" function="internal">
        <lane id=":AB_0_0" index="0" speed="3.65" length="4.67" shape="639.76,1913.32,-1.16 638.96,1914.52,-1.16 638.16,1914.92,-1.16 637.36,1914.52,-1.16 636.56,1913.32,-1.16" />
    </edge>
    <edge id=":AC_0" function="internal">
        <lane id=":AC_0_0" index="0" speed="3.65" length="4.67" shape="956.66,1593.22,-1.16 957.86,1594.02,-1.16 958.26,1594.82,-1.16 957.86,1595.62,-1.16 956.66,1596.42,-1.16" />
    </edge>
    <edge id=":A_intern_0" function="internal">
        <lane id=":A_intern_0_0" index="0" speed="13.41" length="8.54" shape="633.36,1330.32,-0.20 632.86,1327.86,-0.19 631.76,1326.32,-0.18 630.66,1324.78,-0.18 630.16,1322.32,-0.17" />
        <lane id=":A_intern_0_1" index="1" speed="13.41" length="8.54" shape="636.56,1330.32,-0.20 636.06,1327.86,-0.19 634.96,1326.32,-0.18 633.86,1324.78,-0.18 633.36,1322.32,-0.17" />
        <lane id=":A_intern_0_2" index="2" speed="13.41" length="8.54" shape="636.56,1330.32,-0.20 636.56,1322.32,-0.17" />
    </edge>
    <edge id=":B_0" function="internal">
        <lane id=":B_0_0" index="0" speed="6.51" length="9.03" shape="1336.56,1283.52,0.64 1336.21,1281.07,0.64 1335.16,1279.32,0.64 1333.41,1278.27,0.64 1330.96,1277.92,0.63" />
    </edge>
    <edge id=":B_1" function="internal">
        <lane id=":B_1_0" index="0" speed="13.41" length="14.40" shape="1336.56,1283.52,0.64 1336.56,1269.12,0.64" />
    </edge>
    <edge id=":B_2" function="internal">
        <lane id=":B_2_0" index="0" speed="8.00" length="4.07" shape="1336.56,1283.52,0.64 1337.11,1279.67,0.64 1337.20,1279.51,0.64" />
    </edge>
    <edge id=":B_3" function="internal">
        <lane id=":B_3_0" index="0" speed="3.65" length="1.44" shape="1336.56,1283.52,0.64 1337.36,1282.32,0.64" />
    </edge>
    <edge id=":B_16" function="internal">
        <lane id=":B_16_0" index="0" speed="8.00" length="10.13" shape="1337.20,1279.51,0.64 1338.76,1276.92,0.64 1341.51,1275.27,0.64 1345.36,1274.72,0.64" />
    </edge>
    <edge id=":B_17" function="internal">
        <lane id=":B_17_0" index="0" speed="3.65" length="3.23" shape="1337.36,1282.32,0.64 1338.16,1281.92,0.64 1338.96,1282.32,0.64 1339.76,1283.52,0.64" />
    </edge>
    <edge id=":B_4" function="internal">
        <lane id=":B_4_0" index="0" speed="6.51" length="9.03" shape="1345.36,1277.92,0.64 1342.91,1278.27,0.64 1341.16,1279.32,0.64 1340.11,1281.07,0.64 1339.76,1283.52,0.64" />
    </edge>
    <edge id=":B_5" function="internal">
        <lane id=":B_5_0" index="0" speed="13.41" length="14.40" shape="1345.36,1277.92,0.64 1330.96,1277.92,0.63" />
    </edge>
    <edge id=":B_6" function="internal">
        <lane id=":B_6_0" index="0" speed="8.00" length="4.07" shape="1345.36,1277.92,0.64 1341.51,1277.37,0.64 1341.36,1277.28,0.64" />
    </edge>
    <edge id=":B_7" function="internal">
        <lane id=":B_7_0" index="0" speed="3.65" length="1.44" shape="1345.36,1277.92,0.64 1344.16,1277.12,0.64" />
    </edge>
    <edge id=":B_18" function="internal">
        <lane id=":B_18_0" index="0" speed="8.00" length="10.13" shape="1341.36,1277.28,0.64 1338.76,1275.72,0.64 1337.11,1272.97,0.64 1336.56,1269.12,0.64" />
    </edge>
    <edge id=":B_19" function="internal">
        <lane id=":B_19_0" index="0" speed="3.65" length="3.23" shape="1344.16,1277.12,0.64 1343.76,1276.32,0.64 1344.16,1275.52,0.64 1345.36,1274.72,0.64" />
    </edge>
    <edge id=":B_8" function="internal">
        <lane id=":B_8_0" index="0" speed="6.51" length="9.03" shape="1339.76,1269.12,0.64 1340.11,1271.57,0.64 1341.16,1273.32,0.64 1342.91,1274.37,0.64 1345.36,1274.72,0.64" />
    </edge>
    <edge id=":B_9" function="internal">
        <lane id=":B_9_0" index="0" speed="13.41" length="14.40" shape="1339.76,1269.12,0.64 1339.76,1283.52,0.64" />
    </edge>
    <edge id=":B_10" function="internal">
        <lane id=":B_10_0" index="0" speed="8.00" length="4.07" shape="1339.76,1269.12,0.64 1339.21,1272.97,0.64 1339.12,1273.12,0.64" />
    </edge>
    <edge id=":B_11" function="internal">
        <lane id=":B_11_0" index="0" speed="3.65" length="1.44" shape="1339.76,1269.12,0.64 1338.96,1270.32,0.64" />
    </edge>
    <edge id=":B_20" function="internal">
        <lane id=":B_20_0" index="0" speed="8.00" length="10.13" shape="1339.12,1273.12,0.64 1337.56,1275.72,0.64 1334.81,1277.37,0.64 1330.96,1277.92,0.63" />
    </edge>
    <edge id=":B_21" function="internal">
        <lane id=":B_21_0" index="0" speed="3.65" length="3.23" shape="1338.96,1270.32,0.64 1338.16,1270.72,0.64 1337.36,1270.32,0.64 1336.56,1269.12,0.64" />
    </edge>
    <edge id=":B_12" function="internal">
        <lane id=":B_12_0" index="0" speed="6.51" length="9.03" shape="1330.96,1274.72,0.63 1333.41,1274.37,0.64 1335.16,1273.32,0.64 1336.21,1271.57,0.64 1336.56,1269.12,0.64" />
    </edge>
    <edge id=":B_13" function="internal">
        <lane id=":B_13_0" index="0" speed="13.41" length="14.40" shape="1330.96,1274.72,0.63 1345.36,1274.72,0.64" />
    </edge>
    <edge id=":B_14" function="internal">
        <lane id=":B_14_0" index="0" speed="8.00" length="4.07" shape="1330.96,1274.72,0.63 1334.81,1275.27,0.64 1334.96,1275.36,0.64" />
    </edge>
    <edge id=":B_15" function="internal">
        <lane id=":B_15_0" index="0" speed="3.65" length="1.44" shape="1330.96,1274.72,0.63 1332.16,1275.52,0.63" />
    </edge>
    <edge id=":B_22" function="internal">
        <lane id=":B_22_0" index="0" speed="8.00" length="10.13" shape="1334.96,1275.36,0.64 1337.56,1276.92,0.64 1339.21,1279.67,0.64 1339.76,1283.52,0.64" />
    </edge>
    <edge id=":B_23" function="internal">
        <lane id=":B_23_0" index="0" speed="3.65" length="3.23" shape="1332.16,1275.52,0.63 1332.56,1276.32,0.63 1332.16,1277.12,0.63 1330.96,1277.92,0.63" />
    </edge>
    <edge id=":BA_0" function="internal">
        <lane id=":BA_0_0" index="0" speed="3.65" length="4.67" shape="1339.76,1979.36,0.64 1338.96,1980.56,0.64 1338.16,1980.96,0.64 1337.36,1980.56,0.64 1336.56,1979.36,0.64" />
    </edge>
    <edge id=":BB_0" function="internal">
        <lane id=":BB_0_0" index="0" speed="3.65" length="4.67" shape="2041.20,1274.72,0.64 2042.40,1275.52,0.64 2042.80,1276.32,0.64 2042.40,1277.12,0.64 2041.20,1277.92,0.64" />
    </edge>
    <edge id=":BC_0" function="internal">
        <lane id=":BC_0_0" index="0" speed="3.65" length="4.67" shape="1336.56,573.27,0.64 1337.36,572.07,0.64 1338.16,571.67,0.64 1338.96,572.07,0.64 1339.76,573.27,0.64" />
    </edge>
    <edge id=":C_0" function="internal">
        <lane id=":C_0_0" index="0" speed="6.51" length="9.03" shape="633.36,648.56,-1.15 633.01,646.11,-1.15 631.96,644.36,-1.16 630.21,643.31,-1.16 627.76,642.96,-1.17" />
    </edge>
    <edge id=":C_1" function="internal">
        <lane id=":C_1_0" index="0" speed="13.41" length="20.80" shape="633.36,648.56,-1.15 633.36,627.76,-1.17" />
        <lane id=":C_1_1" index="1" speed="13.41" length="20.80" shape="636.56,648.56,-1.15 636.56,627.76,-1.17" />
    </edge>
    <edge id=":C_3" function="internal">
        <lane id=":C_3_0" index="0" speed="9.26" length="5.01" shape="636.56,648.56,-1.15 637.27,643.60,-1.15" />
    </edge>
    <edge id=":C_4" function="internal">
        <lane id=":C_4_0" index="0" speed="3.65" length="1.44" shape="636.56,648.56,-1.15 637.36,647.36,-1.15" />
    </edge>
    <edge id=":C_20" function="internal">
        <lane id=":C_20_0" index="0" speed="9.26" length="14.34" shape="637.27,643.60,-1.15 637.31,643.31,-1.15 639.56,639.56,-1.16 643.31,637.31,-1.16 648.56,636.56,-1.17" />
    </edge>
    <edge id=":C_21" function="internal">
        <lane id=":C_21_0" index="0" speed="3.65" length="3.23" shape="637.36,647.36,-1.15 638.16,646.96,-1.15 638.96,647.36,-1.15 639.76,648.56,-1.15" />
    </edge>
    <edge id=":C_5" function="internal">
        <lane id=":C_5_0" index="0" speed="6.51" length="9.03" shape="648.56,642.96,-1.17 646.11,643.31,-1.16 644.36,644.36,-1.16 643.31,646.11,-1.15 642.96,648.56,-1.15" />
    </edge>
    <edge id=":C_6" function="internal">
        <lane id=":C_6_0" index="0" speed="13.41" length="20.80" shape="648.56,642.96,-1.17 627.76,642.96,-1.17" />
        <lane id=":C_6_1" index="1" speed="13.41" length="20.80" shape="648.56,639.76,-1.17 627.76,639.76,-1.17" />
    </edge>
    <edge id=":C_8" function="internal">
        <lane id=":C_8_0" index="0" speed="9.26" length="5.01" shape="648.56,639.76,-1.17 643.60,639.05,-1.17" />
    </edge>
    <edge id=":C_9" function="internal">
        <lane id=":C_9_0" index="0" speed="3.65" length="1.44" shape="648.56,639.76,-1.17 647.36,638.96,-1.17" />
    </edge>
    <edge id=":C_22" function="internal">
        <lane id=":C_22_0" index="0" speed="9.26" length="14.34" shape="643.60,639.05,-1.17 643.31,639.01,-1.17 639.56,636.76,-1.17 637.31,633.01,-1.17 636.56,627.76,-1.17" />
    </edge>
    <edge id=":C_23" function="internal">
        <lane id=":C_23_0" index="0" speed="3.65" length="3.23" shape="647.36,638.96,-1.17 646.96,638.16,-1.17 647.36,637.36,-1.17 648.56,636.56,-1.17" />
    </edge>
    <edge id=":C_10" function="internal">
        <lane id=":C_10_0" index="0" speed="6.51" length="9.03" shape="642.96,627.76,-1.17 643.31,630.21,-1.17 644.36,631.96,-1.17 646.11,633.01,-1.17 648.56,633.36,-1.17" />
    </edge>
    <edge id=":C_11" function="internal">
        <lane id=":C_11_0" index="0" speed="13.41" length="20.80" shape="642.96,627.76,-1.17 642.96,648.56,-1.15" />
        <lane id=":C_11_1" index="1" speed="13.41" length="20.80" shape="639.76,627.76,-1.17 639.76,648.56,-1.15" />
    </edge>
    <edge id=":C_13" function="internal">
        <lane id=":C_13_0" index="0" speed="9.26" length="5.01" shape="639.76,627.76,-1.17 639.05,632.72,-1.17" />
    </edge>
    <edge id=":C_14" function="internal">
        <lane id=":C_14_0" index="0" speed="3.65" length="1.44" shape="639.76,627.76,-1.17 638.96,628.96,-1.17" />
    </edge>
    <edge id=":C_24" function="internal">
        <lane id=":C_24_0" index="0" speed="9.26" length="14.34" shape="639.05,632.72,-1.17 639.01,633.01,-1.17 636.76,636.76,-1.17 633.01,639.01,-1.17 627.76,639.76,-1.17" />
    </edge>
    <edge id=":C_25" function="internal">
        <lane id=":C_25_0" index="0" speed="3.65" length="3.23" shape="638.96,628.96,-1.17 638.16,629.36,-1.17 637.36,628.96,-1.17 636.56,627.76,-1.17" />
    </edge>
    <edge id=":C_15" function="internal">
        <lane id=":C_15_0" index="0" speed="6.51" length="9.03" shape="627.76,633.36,-1.17 630.21,633.01,-1.17 631.96,631.96,-1.17 633.01,630.21,-1.17 633.36,627.76,-1.17" />
    </edge>
    <edge id=":C_16" function="internal">
        <lane id=":C_16_0" index="0" speed="13.41" length="20.80" shape="627.76,633.36,-1.17 648.56,633.36,-1.17" />
        <lane id=":C_16_1" index="1" speed="13.41" length="20.80" shape="627.76,636.56,-1.17 648.56,636.56,-1.17" />
    </edge>
    <edge id=":C_18" function="internal">
        <lane id=":C_18_0" index="0" speed="9.26" length="5.01" shape="627.76,636.56,-1.17 632.72,637.27,-1.16" />
    </edge>
    <edge id=":C_19" function="internal">
        <lane id=":C_19_0" index="0" speed="3.65" length="1.44" shape="627.76,636.56,-1.17 628.96,637.36,-1.17" />
    </edge>
    <edge id=":C_26" function="internal">
        <lane id=":C_26_0" index="0" speed="9.26" length="14.34" shape="632.72,637.27,-1.16 633.01,637.31,-1.16 636.76,639.56,-1.16 639.01,643.31,-1.15 639.76,648.56,-1.15" />
    </edge>
    <edge id=":C_27" function="internal">
        <lane id=":C_27_0" index="0" speed="3.65" length="3.23" shape="628.96,637.36,-1.17 629.36,638.16,-1.17 628.96,638.96,-1.17 627.76,639.76,-1.17" />
    </edge>
    <edge id=":CA_0" function="internal">
        <lane id=":CA_0_0" index="0" speed="3.65" length="4.67" shape="1276.32,636.56,-1.17 1277.52,637.36,-1.17 1277.92,638.16,-1.17 1277.52,638.96,-1.17 1276.32,639.76,-1.17" />
    </edge>
    <edge id=":CB_0" function="internal">
        <lane id=":CB_0_0" index="0" speed="3.65" length="4.67" shape="636.56,-0.00,-1.17 637.36,-1.20,-1.17 638.16,-1.60,-1.17 638.96,-1.20,-1.17 639.76,0.00,-1.17" />
    </edge>
    <edge id=":CC_0" function="internal">
        <lane id=":CC_0_0" index="0" speed="3.65" length="4.67" shape="-0.00,639.76,-1.17 -1.20,638.96,-1.17 -1.60,638.16,-1.17 -1.20,637.36,-1.17 0.00,636.56,-1.17" />
    </edge>
    <edge id=":C_intern_0" function="internal">
        <lane id=":C_intern_0_0" index="0" speed="13.41" length="8.54" shape="642.96,1222.32,-0.10 643.46,1224.78,-0.09 644.56,1226.32,-0.09 645.66,1227.86,-0.09 646.16,1230.32,-0.08" />
        <lane id=":C_intern_0_1" index="1" speed="13.41" length="8.54" shape="639.76,1222.32,-0.10 640.26,1224.78,-0.09 641.36,1226.32,-0.09 642.46,1227.86,-0.09 642.96,1230.32,-0.08" />
        <lane id=":C_intern_0_2" index="2" speed="13.41" length="8.54" shape="639.76,1222.32,-0.10 639.76,1230.32,-0.08" />
    </edge>
    <edge id=":D_0" function="internal">
        <lane id=":D_0_0" index="0" speed="6.51" length="9.03" shape="390.47,1283.52,-0.45 390.12,1281.07,-0.45 389.07,1279.32,-0.45 387.32,1278.27,-0.45 384.87,1277.92,-0.45" />
    </edge>
    <edge id=":D_1" function="internal">
        <lane id=":D_1_0" index="0" speed="13.41" length="14.40" shape="390.47,1283.52,-0.45 390.47,1269.12,-0.45" />
    </edge>
    <edge id=":D_2" function="internal">
        <lane id=":D_2_0" index="0" speed="8.00" length="4.07" shape="390.47,1283.52,-0.45 391.02,1279.67,-0.45 391.12,1279.51,-0.45" />
    </edge>
    <edge id=":D_3" function="internal">
        <lane id=":D_3_0" index="0" speed="3.65" length="1.44" shape="390.47,1283.52,-0.45 391.27,1282.32,-0.45" />
    </edge>
    <edge id=":D_16" function="internal">
        <lane id=":D_16_0" index="0" speed="8.00" length="10.13" shape="391.12,1279.51,-0.45 392.67,1276.92,-0.44 395.42,1275.27,-0.44 399.27,1274.72,-0.44" />
    </edge>
    <edge id=":D_17" function="internal">
        <lane id=":D_17_0" index="0" speed="3.65" length="3.23" shape="391.27,1282.32,-0.45 392.07,1281.92,-0.45 392.87,1282.32,-0.45 393.67,1283.52,-0.45" />
    </edge>
    <edge id=":D_4" function="internal">
        <lane id=":D_4_0" index="0" speed="6.51" length="9.03" shape="399.27,1277.92,-0.44 396.82,1278.27,-0.44 395.07,1279.32,-0.44 394.02,1281.07,-0.45 393.67,1283.52,-0.45" />
    </edge>
    <edge id=":D_5" function="internal">
        <lane id=":D_5_0" index="0" speed="13.41" length="14.40" shape="399.27,1277.92,-0.44 384.87,1277.92,-0.45" />
    </edge>
    <edge id=":D_6" function="internal">
        <lane id=":D_6_0" index="0" speed="8.00" length="4.07" shape="399.27,1277.92,-0.44 395.42,1277.37,-0.44 395.27,1277.28,-0.44" />
    </edge>
    <edge id=":D_7" function="internal">
        <lane id=":D_7_0" index="0" speed="3.65" length="1.44" shape="399.27,1277.92,-0.44 398.07,1277.12,-0.44" />
    </edge>
    <edge id=":D_18" function="internal">
        <lane id=":D_18_0" index="0" speed="8.00" length="10.13" shape="395.27,1277.28,-0.44 392.67,1275.72,-0.44 391.02,1272.97,-0.45 390.47,1269.12,-0.45" />
    </edge>
    <edge id=":D_19" function="internal">
        <lane id=":D_19_0" index="0" speed="3.65" length="3.23" shape="398.07,1277.12,-0.44 397.67,1276.32,-0.44 398.07,1275.52,-0.44 399.27,1274.72,-0.44" />
    </edge>
    <edge id=":D_8" function="internal">
        <lane id=":D_8_0" index="0" speed="6.51" length="9.03" shape="393.67,1269.12,-0.45 394.02,1271.57,-0.45 395.07,1273.32,-0.44 396.82,1274.37,-0.44 399.27,1274.72,-0.44" />
    </edge>
    <edge id=":D_9" function="internal">
        <lane id=":D_9_0" index="0" speed="13.41" length="14.40" shape="393.67,1269.12,-0.45 393.67,1283.52,-0.45" />
    </edge>
    <edge id=":D_10" function="internal">
        <lane id=":D_10_0" index="0" speed="8.00" length="4.07" shape="393.67,1269.12,-0.45 393.12,1272.97,-0.45 393.03,1273.12,-0.45" />
    </edge>
    <edge id=":D_11" function="internal">
        <lane id=":D_11_0" index="0" speed="3.65" length="1.44" shape="393.67,1269.12,-0.45 392.87,1270.32,-0.45" />
    </edge>
    <edge id=":D_20" function="internal">
        <lane id=":D_20_0" index="0" speed="8.00" length="10.13" shape="393.03,1273.12,-0.45 391.47,1275.72,-0.45 388.72,1277.37,-0.45 384.87,1277.92,-0.45" />
    </edge>
    <edge id=":D_21" function="internal">
        <lane id=":D_21_0" index="0" speed="3.65" length="3.23" shape="392.87,1270.32,-0.45 392.07,1270.72,-0.45 391.27,1270.32,-0.45 390.47,1269.12,-0.45" />
    </edge>
    <edge id=":D_12" function="internal">
        <lane id=":D_12_0" index="0" speed="6.51" length="9.03" shape="384.87,1274.72,-0.45 387.32,1274.37,-0.45 389.07,1273.32,-0.45 390.12,1271.57,-0.45 390.47,1269.12,-0.45" />
    </edge>
    <edge id=":D_13" function="internal">
        <lane id=":D_13_0" index="0" speed="13.41" length="14.40" shape="384.87,1274.72,-0.45 399.27,1274.72,-0.44" />
    </edge>
    <edge id=":D_14" function="internal">
        <lane id=":D_14_0" index="0" speed="8.00" length="4.07" shape="384.87,1274.72,-0.45 388.72,1275.27,-0.45 388.88,1275.36,-0.45" />
    </edge>
    <edge id=":D_15" function="internal">
        <lane id=":D_15_0" index="0" speed="3.65" length="1.44" shape="384.87,1274.72,-0.45 386.07,1275.52,-0.45" />
    </edge>
    <edge id=":D_22" function="internal">
        <lane id=":D_22_0" index="0" speed="8.00" length="10.13" shape="388.88,1275.36,-0.45 391.47,1276.92,-0.45 393.12,1279.67,-0.45 393.67,1283.52,-0.45" />
    </edge>
    <edge id=":D_23" function="internal">
        <lane id=":D_23_0" index="0" speed="3.65" length="3.23" shape="386.07,1275.52,-0.45 386.47,1276.32,-0.45 386.07,1277.12,-0.45 384.87,1277.92,-0.45" />
    </edge>
    <edge id=":DA_0" function="internal">
        <lane id=":DA_0_0" index="0" speed="3.65" length="4.67" shape="390.47,1030.23,-0.45 391.27,1029.03,-0.45 392.07,1028.63,-0.45 392.87,1029.03,-0.45 393.67,1030.23,-0.45" />
    </edge>
    <edge id=":DB_0" function="internal">
        <lane id=":DB_0_0" index="0" speed="3.65" length="4.67" shape="145.99,1277.92,-0.45 144.79,1277.12,-0.45 144.39,1276.32,-0.45 144.79,1275.52,-0.45 145.99,1274.72,-0.45" />
    </edge>
    <edge id=":DC_0" function="internal">
        <lane id=":DC_0_0" index="0" speed="3.65" length="4.67" shape="393.67,1522.40,-0.45 392.87,1523.60,-0.45 392.07,1524.00,-0.45 391.27,1523.60,-0.45 390.47,1522.40,-0.45" />
    </edge>
    <edge id=":D_intern_0" function="internal">
        <lane id=":D_intern_0_0" index="0" speed="13.41" length="8.40" shape="584.16,1274.72,-0.10 586.62,1274.22,-0.09 588.16,1273.12,-0.09 589.70,1272.02,-0.09 592.16,1271.52,-0.08" />
        <lane id=":D_intern_0_1" index="1" speed="13.41" length="8.40" shape="584.16,1274.72,-0.10 592.16,1274.72,-0.08" />
    </edge>
    <edge id=":TL_0" function="internal">
        <lane id=":TL_0_0" index="0" speed="6.51" length="9.03" shape="630.16,1283.52,-0.03 629.81,1281.07,-0.03 628.76,1279.32,-0.03 627.01,1278.27,-0.03 624.56,1277.92,-0.02" />
    </edge>
    <edge id=":TL_1" function="internal">
        <lane id=":TL_1_0" index="0" speed="13.41" length="17.98" shape="630.16,1283.52,-0.03 630.66,1278.25,-0.02 631.76,1274.72,-0.02 632.86,1271.18,-0.02 633.36,1265.92,-0.02" />
        <lane id=":TL_1_1" index="1" speed="13.41" length="17.98" shape="633.36,1283.52,-0.03 633.86,1278.25,-0.02 634.96,1274.72,-0.02 636.06,1271.18,-0.02 636.56,1265.92,-0.02" />
    </edge>
    <edge id=":TL_3" function="internal">
        <lane id=":TL_3_0" index="0" speed="9.32" length="3.97" shape="636.56,1283.52,-0.03 637.51,1279.67,-0.02" />
    </edge>
    <edge id=":TL_13" function="internal">
        <lane id=":TL_13_0" index="0" speed="9.32" length="15.66" shape="637.51,1279.67,-0.02 640.36,1276.92,-0.01 645.11,1275.27,-0.00 651.76,1274.72,0.01" />
    </edge>
    <edge id=":TL_4" function="internal">
        <lane id=":TL_4_0" index="0" speed="7.33" length="11.73" shape="651.76,1277.92,0.01 647.91,1278.27,-0.00 645.16,1279.32,-0.01 643.51,1281.07,-0.02 642.96,1283.52,-0.03" />
    </edge>
    <edge id=":TL_5" function="internal">
        <lane id=":TL_5_0" index="0" speed="13.41" length="27.20" shape="651.76,1277.92,0.01 624.56,1277.92,-0.02" />
    </edge>
    <edge id=":TL_6" function="internal">
        <lane id=":TL_6_0" index="0" speed="7.33" length="11.73" shape="646.16,1265.92,-0.02 646.51,1269.77,-0.01 647.56,1272.52,-0.00 649.31,1274.17,0.01 651.76,1274.72,0.01" />
    </edge>
    <edge id=":TL_7" function="internal">
        <lane id=":TL_7_0" index="0" speed="13.41" length="17.98" shape="646.16,1265.92,-0.02 645.66,1271.18,-0.02 644.56,1274.72,-0.02 643.46,1278.25,-0.02 642.96,1283.52,-0.03" />
        <lane id=":TL_7_1" index="1" speed="13.41" length="17.98" shape="642.96,1265.92,-0.02 642.46,1271.18,-0.02 641.36,1274.72,-0.02 640.26,1278.25,-0.02 639.76,1283.52,-0.03" />
    </edge>
    <edge id=":TL_9" function="internal">
        <lane id=":TL_9_0" index="0" speed="9.84" length="5.61" shape="639.76,1265.92,-0.02 638.81,1271.17,-0.02 638.64,1271.38,-0.02" />
    </edge>
    <edge id=":TL_14" function="internal">
        <lane id=":TL_14_0" index="0" speed="9.84" length="16.39" shape="638.64,1271.38,-0.02 635.96,1274.92,-0.02 631.21,1277.17,-0.02 624.56,1277.92,-0.02" />
    </edge>
    <edge id=":TL_10" function="internal">
        <lane id=":TL_10_0" index="0" speed="7.33" length="11.73" shape="624.56,1271.52,-0.02 628.41,1271.17,-0.02 631.16,1270.12,-0.02 632.81,1268.37,-0.02 633.36,1265.92,-0.02" />
    </edge>
    <edge id=":TL_11" function="internal">
        <lane id=":TL_11_0" index="0" speed="13.41" length="27.41" shape="624.56,1271.52,-0.02 632.32,1272.02,-0.01 640.03,1273.12,-0.00 646.81,1274.22,0.01 651.76,1274.72,0.01" />
    </edge>
    <edge id=":TL_12" function="internal">
        <lane id=":TL_12_0" index="0" speed="9.32" length="7.05" shape="624.56,1274.72,-0.02 631.21,1275.27,-0.03 631.57,1275.39,-0.03" />
    </edge>
    <edge id=":TL_15" function="internal">
        <lane id=":TL_15_0" index="0" speed="9.32" length="12.57" shape="631.57,1275.39,-0.03 635.96,1276.92,-0.03 638.81,1279.67,-0.03 639.76,1283.52,-0.03" />
    </edge>

    <edge id="A2AA" from="A" to="AA" priority="-1">
        <lane id="A2AA_0" index="0" speed="13.41" length="308.10" shape="627.76,1599.62,-1.16 319.66,1599.62,-1.16" />
        <lane id="A2AA_1" index="1" speed="13.41" length="308.10" shape="627.76,1596.42,-1.16 319.66,1596.42,-1.16" />
    </edge>
    <edge id="A2AB" from="A" to="AB" priority="-1">
        <lane id="A2AB_0" index="0" speed="13.41" length="308.10" shape="642.96,1605.22,-1.16 642.96,1913.32,-1.16" />
        <lane id="A2AB_1" index="1" speed="13.41" length="308.10" shape="639.76,1605.22,-1.16 639.76,1913.32,-1.16" />
    </edge>
    <edge id="A2AC" from="A" to="AC" priority="-1">
        <lane id="A2AC_0" index="0" speed="13.41" length="308.10" shape="648.56,1590.02,-1.16 956.66,1590.02,-1.16" />
        <lane id="A2AC_1" index="1" speed="13.41" length="308.10" shape="648.56,1593.22,-1.16 956.66,1593.22,-1.16" />
    </edge>
    <edge id="A2TL" from="A" to="A_intern" priority="-1">
        <lane id="A2TL_0" index="0" speed="13.41" length="254.10" shape="633.36,1584.42,-1.13 633.36,1330.32,-0.20" />
        <lane id="A2TL_1" index="1" speed="13.41" length="254.10" shape="636.56,1584.42,-1.13 636.56,1330.32,-0.20" />
    </edge>
    <edge id="A2TL_intern" from="A_intern" to="TL" priority="-1">
        <lane id="A2TL_intern_0" index="0" speed="13.41" length="38.80" shape="630.16,1322.32,-0.17 630.16,1283.52,-0.03" />
        <lane id="A2TL_intern_1" index="1" speed="13.41" length="38.80" shape="633.36,1322.32,-0.17 633.36,1283.52,-0.03" />
        <lane id="A2TL_intern_2" index="2" speed="13.41" length="38.80" shape="636.56,1322.32,-0.17 636.56,1283.52,-0.03" />
    </edge>
    <edge id="AA2A" from="AA" to="A" priority="-1">
        <lane id="AA2A_0" index="0" speed="13.41" length="308.10" shape="319.66,1590.02,-1.16 627.76,1590.02,-1.16" />
        <lane id="AA2A_1" index="1" speed="13.41" length="308.10" shape="319.66,1593.22,-1.16 627.76,1593.22,-1.16" />
    </edge>
    <edge id="AB2A" from="AB" to="A" priority="-1">