<?xml version="1.0" encoding="UTF-8"?>

<!-- generated on 2023-01-13 17:07:17 by Eclipse SUMO netedit Version 1.13.0
<configuration xmlns:xsi="http://www.w3.org/2001/XMLSchema-instance" xsi:noNamespaceSchemaLocation="http://sumo.dlr.de/xsd/netconvertConfiguration.xsd">

    <input>
        <sumo-net-file value="sumo_static/21/net.net.xml"/>
    </input>

    <output>
        <output-file value="sumo_static/21/net.net.xml"/>
    </output>

    <processing>
        <geometry.min-radius.fix.railways value="false"/>
        <geometry.max-grade.fix value="false"/>
        <offset.disable-normalization value="true"/>
        <lefthand value="false"/>
    </processing>

    <junctions>
        <no-turnarounds value="true"/>
        <junctions.corner-detail value="5"/>
        <junctions.limit-turn-speed value="5.5"/>
        <rectangular-lane-cut value="false"/>
    </junctions>

    <pedestrian>
        <walkingareas value="false"/>
    </pedestrian>

    <report>
        <aggregate-warnings value="5"/>
    </report>

</configuration>
-->

<net version="1.9" junctionCornerDetail="5" limitTurnSpeed="5.50" xmlns:xsi="http://www.w3.org/2001/XMLSchema-instance" xsi:noNamespaceSchemaLocation="http://sumo.dlr.de/xsd/net_file.xsd">

    <location netOffset="0.00,0.00" convBoundary="[-500.00],[-500.00],[500.00],[500.00]" origBoundary="-10000000000.00,-10000000000.00,10000000000.00,10000000000.00" projParameter="!"/>

    <edge id=":A_0" function="internal">
        <lane id=":A_0_0" index="0" speed="13.89" length="14.40" shape="-4.80,[254.00] -4.80,[239.60]"/>
        <lane id=":A_0_1" index="1" speed="13.89" length="14.40" shape="-1.60,[254.00] -1.60,[239.60]"/>
    </edge>
    <edge id=":A_2" function="internal">
        <lane id=":A_2_0" index="0" speed="6.51" length="9.03" shape="-10.40,[245.20] -7.95,[244.85] -6.20,[243.80] -5.15,[242.05] -4.80,[239.60]"/>
        <lane id=":A_2_1" index="1" speed="8.00" length="14.19" shape="-10.40,[248.40] -6.55,[247.85] -3.80,[246.20] -2.15,[243.45] -1.60,[239.60]"/>
    </edge>
    <edge id=":B_0" function="internal">
        <lane id=":B_0_0" index="0" speed="6.51" length="9.03" shape="[245.20],10.40 [244.85],7.95 [243.80],6.20 [242.05],5.15 [239.60],4.80"/>
        <lane id=":B_0_1" index="1" speed="8.00" length="14.19" shape="[248.40],10.40 [247.85],6.55 [246.20],3.80 [243.45],2.15 [239.60],1.60"/>
    </edge>
    <edge id=":B_2" function="internal">
        <lane id=":B_2_0" index="0" speed="13.89" length="14.40" shape="[254.00],4.80 [239.60],4.80"/>
        <lane id=":B_2_1" index="1" speed="13.89" length="14.40" shape="[254.00],1.60 [239.60],1.60"/>
    </edge>
    <edge id=":C_0" function="internal">
        <lane id=":C_0_0" index="0" speed="6.51" length="9.03" shape="10.40,[-245.20] 7.95,[-244.85] 6.20,[-243.80] 5.15,[-242.05] 4.80,[-239.60]"/>
        <lane id=":C_0_1" index="1" speed="8.00" length="14.19" shape="10.40,[-248.40] 6.55,[-247.85] 3.80,[-246.20] 2.15,[-243.45] 1.60,[-239.60]"/>
    </edge>
    <edge id=":C_2" function="internal">
        <lane id=":C_2_0" index="0" speed="13.89" length="14.40" shape="4.80,[-254.00] 4.80,[-239.60]"/>
        <lane id=":C_2_1" index="1" speed="13.89" length="14.40" shape="1.60,[-254.00] 1.60,[-239.60]"/>
    </edge>
    <edge id=":D_0" function="internal">
        <lane id=":D_0_0" index="0" speed="6.51" length="9.03" shape="[-245.20],-10.40 [-244.85],-7.95 [-243.80],-6.20 [-242.05],-5.15 [-239.60],-4.80"/>
        <lane id=":D_0_1" index="1" speed="8.00" length="14.19" shape="[-248.40],-10.40 [-247.85],-6.55 [-246.20],-3.80 [-243.45],-2.15 [-239.60],-1.60"/>
    </edge>
    <edge id=":D_2" function="internal">
        <lane id=":D_2_0" index="0" speed="13.89" length="14.40" shape="[-254.00],-4.80 [-239.60],-4.80"/>
        <lane id=":D_2_1" index="1" speed="13.89" length="14.40" shape="[-254.00],-1.60 [-239.60],-1.60"/>
    </edge>
    <edge id=":TL_0" function="internal">
        <lane id=":TL_0_0" index="0" speed="6.51" length="9.03" shape="-4.80,10.40 -5.15,7.95 -6.20,6.20 -7.95,5.15 -10.40,4.80"/>
    </edge>
    <edge id=":TL_1" function="internal">
        <lane id=":TL_1_0" index="0" speed="13.89" length="20.80" shape="-4.80,10.40 -4.80,-10.40"/>
        <lane id=":TL_1_1" index="1" speed="13.89" length="20.80" shape="-1.60,10.40 -1.60,-10.40"/>
    </edge>
    <edge id=":TL_3" function="internal">
        <lane id=":TL_3_0" index="0" speed="6.51" length="9.03" shape="10.40,4.80 7.95,5.15 6.20,6.20 5.15,7.95 4.80,10.40"/>
    </edge>
    <edge id=":TL_4" function="internal">
        <lane id=":TL_4_0" index="0" speed="13.89" length="20.80" shape="10.40,4.80 -10.40,4.80"/>
        <lane id=":TL_4_1" index="1" speed="13.89" length="20.80" shape="10.40,1.60 -10.40,1.60"/>
    </edge>
    <edge id=":TL_6" function="internal">
        <lane id=":TL_6_0" index="0" speed="6.51" length="9.03" shape="4.80,-10.40 5.15,-7.95 6.20,-6.20 7.95,-5.15 10.40,-4.80"/>
    </edge>
    <edge id=":TL_7" function="internal">
        <lane id=":TL_7_0" index="0" speed="13.89" length="20.80" shape="4.80,-10.40 4.80,10.40"/>
        <lane id=":TL_7_1" index="1" speed="13.89" length="20.80" shape="1.60,-10.40 1.60,10.40"/>
    </edge>
    <edge id=":TL_9" function="internal">
        <lane id=":TL_9_0" index="0" speed="6.51" length="9.03" shape="-10.40,-4.80 -7.95,-5.15 -6.20,-6.20 -5.15,-7.95 -4.80,-10.40"/>
    </edge>
    <edge id=":TL_10" function="internal">
        <lane id=":TL_10_0" index="0" speed="13.89" length="20.80" shape="-10.40,-4.80 10.40,-4.80"/>
        <lane id=":TL_10_1" index="1" speed="13.89" length="20.80" shape="-10.40,-1.60 10.40,-1.60"/>
    </edge>

    <edge id="A2TL" from="A" to="TL" priority="-1">
        <lane id="A2TL_0" index="0" speed="13.89" length="[229.20]" shape="-4.80,[239.60] -4.80,10.40"/>
        <lane id="A2TL_1" index="1" speed="13.89" length="[229.20]" shape="-1.60,[239.60] -1.60,10.40"/>
    </edge>
    <edge id="AA2A" from="AA" to="A" priority="-1">
        <lane id="AA2A_0" index="0" speed="13.89" length="[239.60]" shape="[-250.00],[245.20] -10.40,[245.20]"/>
        <lane id="AA2A_1" index="1" speed="13.89" length="[239.60]" shape="[-250.00],[248.40] -10.40,[248.40]"/>
    </edge>
    <edge id="AB2A" from="AB" to="A" priority="-1">
        <lane id="AB2A_0" index="0" speed="13.89" length="246.00" shape="-4.80,[500.00] -4.80,[254.00]"/>
        <lane id="AB2A_1" index="1" speed="13.89" length="246.00" shape="-1.60,[500.00] -1.60,[254.00]"/>
    </edge>
    <edge id="B2TL" from="B" to="TL" priority="-1">
        <lane id="B2TL_0" index="0" speed="13.89" length="[229.20]" shape="[239.60],4.80 10.40,4.80"/>
        <lane id="B2TL_1" index="1" speed="13.89" length="[229.20]" shape="[239.60],1.60 10.40,1.60"/>
    </edge>
    <edge id="BA2B" from="BA" to="B" priority="-1">
        <lane id="BA2B_0" index="0" speed="13.89" length="[239.60]" shape="[245.20],[250.00] [245.20],10.40"/>
        <lane id="BA2B_1" index="1" speed="13.89" length="[239.60]" shape="[248.40],[250.00] [248.40],10.40"/>
    </edge>
    <edge id="BB2B" from="BB" to="B" priority="-1">
        <lane id="BB2B_0" index="0" speed="13.89" length="246.00" shape="[500.00],4.80 [254.00],4.80"/>
        <lane id="BB2B_1" index="1" speed="13.89" length="246.00" shape="[500.00],1.60 [254.00],1.60"/>
    </edge>
    <edge id="C2TL" from="C" to="TL" priority="-1">
        <lane id="C2TL_0" index="0" speed="13.89" length="[229.20]" shape="4.80,[-239.60] 4.80,-10.40"/>
        <lane id="C2TL_1" index="1" speed="13.89" length="[229.20]" shape="1.60,[-239.60] 1.60,-10.40"/>
    </edge>
    <edge id="CA2C" from="CA" to="C" priority="-1">
        <lane id="CA2C_0" index="0" speed="13.89" length="[239.60]" shape="[250.00],[-245.20] 10.40,[-245.20]"/>
        <lane id="CA2C_1" index="1" speed="13.89" length="[239.60]" shape="[250.00],[-248.40] 10.40,[-248.40]"/>
    </edge>
    <edge id="CB2C" from="CB" to="C" priority="-1">
        <lane id="CB2C_0" index="0" speed="13.89" length="246.00" shape="4.80,[-500.00] 4.80,[-254.00]"/>
        <lane id="CB2C_1" index="1" speed="13.89" length="246.00" shape="1.60,[-500.00] 1.60,[-254.00]"/>
    </edge>
    <edge id="D2TL" from="D" to="TL" priority="-1">
        <lane id="D2TL_0" index="0" speed="13.89" length="[229.20]" shape="[-239.60],-4.80 -10.40,-4.80"/>
        <lane id="D2TL_1" index="1" speed="13.89" length="[229.20]" shape="[-239.60],-1.60 -10.40,-1.60"/>
    </edge>
    <edge id="DA2D" from="DA" to="D" priority="-1">
        <lane id="DA2D_0" index="0" speed="13.89" length="[239.60]" shape="[-245.20],[-250.00] [-245.20],-10.40"/>
        <lane id="DA2D_1" index="1" speed="13.89" length="[239.60]" shape="[-248.40],[-250.00] [-248.40],-10.40"/>
    </edge>
    <edge id="DB2D" from="DB" to="D" priority="-1">
        <lane id="DB2D_0" index="0" speed="13.89" length="246.00" shape="[-500.00],-4.80 [-254.00],-4.80"/>
        <lane id="DB2D_1" index="1" speed="13.89" length="246.00" shape="[-500.00],-1.60 [-254.00],-1.60"/>
    </edge>
    <edge id="TL2A" from="TL" to="A" priority="-1">
        <lane id="TL2A_0" index="0" speed="13.89" length="[229.20]" shape="4.80,10.40 4.80,[239.60]"/>
        <lane id="TL2A_1" index="1" speed="13.89" length="[229.20]" shape="1.60,10.40 1.60,[239.60]"/>
    </edge>
    <edge id="TL2B" from="TL" to="B" priority="-1">
        <lane id="TL2B_0" index="0" speed="13.89" length="[229.20]" shape="10.40,-4.80 [239.60],-4.80"/>
        <lane id="TL2B_1" index="1" speed="13.89" length="[229.20]" shape="10.40,-1.60 [239.60],-1.60"/>
    </edge>
    <edge id="TL2C" from="TL" to="C" priority="-1">
        <lane id="TL2C_0" index="0" speed="13.89" length="[229.20]" shape="-4.80,-10.40 -4.80,[-239.60]"/>
        <lane id="TL2C_1" index="1" speed="13.89" length="[229.20]" shape="-1.60,-10.40 -1.60,[-239.60]"/>
    </edge>
    <edge id="TL2D" from="TL" to="D" priority="-1">
        <lane id="TL2D_0" index="0" speed="13.89" length="[229.20]" shape="-10.40,4.80 [-239.60],4.80"/>
        <lane id="TL2D_1" index="1" speed="13.89" length="[229.20]" shape="-10.40,1.60 [-239.60],1.60"/>
    </edge>

    <tlLogic id="A" type="static" programID="0" offset="<offset>">
        <phase duration="<green_phase_duration>" state="GGrr"/>
        <phase duration="3"  state="yyrr"/>
        <phase duration="<red_phase_duration>" state="rrGG"/>
        <phase duration="3"  state="rryy"/>
    </tlLogic>
    <tlLogic id="B" type="static" programID="0" offset="<offset>">
        <phase duration="<red_phase_duration>" state="rrGG"/>
        <phase duration="3"  state="rryy"/>
        <phase duration="<green_phase_duration>" state="GGrr"/>
        <phase duration="3"  state="yyrr"/>
    </tlLogic>
    <tlLogic id="C" type="static" programID="0" offset="<offset>">
        <phase duration="<green_phase_duration>" state="rrGG"/>
        <phase duration="3"  state="rryy"/>
        <phase duration="<red_phase_duration>" state="GGrr"/>
        <phase duration="3"  state="yyrr"/>
    </tlLogic>
    <tlLogic id="D" type="static" programID="0" offset="<offset>">
        <phase duration="<red_phase_duration>" state="rrGG"/>
        <phase duration="3"  state="rryy"/>
        <phase duration="<green_phase_duration>" state="GGrr"/>
        <phase duration="3"  state="yyrr"/>
    </tlLogic>
    <tlLogic id="TL" type="static" programID="0" offset="0">
        <phase duration="<green_phase_duration>" state="GGGrrrGGGrrr"/>
        <phase duration="3"  state="yyyrrryyyrrr"/>
        <phase duration="<red_phase_duration>" state="rrrGGGrrrGGG"/>
        <phase duration="3"  state="rrryyyrrryyy"/>
    </tlLogic>

    <junction id="A" type="traffic_light" x="0.00" y="[250.00]" incLanes="AB2A_0 AB2A_1 TL2A_0 TL2A_1 AA2A_0 AA2A_1" intLanes=":A_0_0 :A_0_1 :A_2_0 :A_2_1" shape="-6.40,[254.00] 0.00,[254.00] 0.47,[250.74] 1.66,[248.52] 4.74,[245.08] 5.93,[242.86] 6.40,[239.60] -6.40,[239.60] -6.84,[241.82] -7.40,[242.60] -8.18,[243.16] -9.18,[243.49] -10.40,[243.60] -10.40,[250.00] -8.18,[250.44] -7.40,[251.00] -6.84,[251.78] -6.51,[252.78]">
        <request index="0" response="0000" foes="1100" cont="0"/>
        <request index="1" response="0000" foes="1100" cont="0"/>
        <request index="2" response="0011" foes="0011" cont="0"/>
        <request index="3" response="0011" foes="0011" cont="0"/>
    </junction>
    <junction id="AA" type="dead_end" x="[-250.00]" y="[250.00]" incLanes="" intLanes="" shape="[-250.00],[250.00] [-250.00],[243.60]"/>
    <junction id="AB" type="dead_end" x="0.00" y="[500.00]" incLanes="" intLanes="" shape="0.00,[500.00] -6.40,[500.00]"/>
    <junction id="B" type="traffic_light" x="[250.00]" y="0.00" incLanes="BA2B_0 BA2B_1 BB2B_0 BB2B_1 TL2B_0 TL2B_1" intLanes=":B_0_0 :B_0_1 :B_2_0 :B_2_1" shape="[243.60],10.40 [250.00],10.40 [250.44],8.18 [251.00],7.40 [251.78],6.84 [252.78],6.51 [254.00],6.40 [254.00],0.00 [250.74],-0.47 [248.52],-1.66 [245.08],-4.74 [242.86],-5.93 [239.60],-6.40 [239.60],6.40 [241.82],6.84 [242.60],7.40 [243.16],8.18 [243.49],9.18">
        <request index="0" response="1100" foes="1100" cont="0"/>
        <request index="1" response="1100" foes="1100" cont="0"/>
        <request index="2" response="0000" foes="0011" cont="0"/>
        <request index="3" response="0000" foes="0011" cont="0"/>
    </junction>
    <junction id="BA" type="dead_end" x="[250.00]" y="[250.00]" incLanes="" intLanes="" shape="[250.00],[250.00] [243.60],[250.00]"/>
    <junction id="BB" type="dead_end" x="[500.00]" y="0.00" incLanes="" intLanes="" shape="[500.00],0.00 [500.00],6.40"/>
    <junction id="C" type="traffic_light" x="0.00" y="[-250.00]" incLanes="TL2C_0 TL2C_1 CA2C_0 CA2C_1 CB2C_0 CB2C_1" intLanes=":C_0_0 :C_0_1 :C_2_0 :C_2_1" shape="-6.40,[-239.60] 6.40,[-239.60] 6.84,[-241.82] 7.40,[-242.60] 8.18,[-243.16] 9.18,[-243.49] 10.40,[-243.60] 10.40,[-250.00] 8.18,[-250.44] 7.40,[-251.00] 6.84,[-251.78] 6.51,[-252.78] 6.40,[-254.00] 0.00,[-254.00] -0.47,[-250.74] -1.66,[-248.52] -4.74,[-245.08] -5.93,[-242.86]">
        <request index="0" response="1100" foes="1100" cont="0"/>
        <request index="1" response="1100" foes="1100" cont="0"/>
        <request index="2" response="0000" foes="0011" cont="0"/>
        <request index="3" response="0000" foes="0011" cont="0"/>
    </junction>
    <junction id="CA" type="dead_end" x="[250.00]" y="[-250.00]" incLanes="" intLanes="" shape="[250.00],[-250.00] [250.00],[-243.60]"/>
    <junction id="CB" type="dead_end" x="0.00" y="[-500.00]" incLanes="" intLanes="" shape="0.00,[-500.00] 6.40,[-500.00]"/>
    <junction id="D" type="traffic_light" x="[-250.00]" y="0.00" incLanes="TL2D_0 TL2D_1 DA2D_0 DA2D_1 DB2D_0 DB2D_1" intLanes=":D_0_0 :D_0_1 :D_2_0 :D_2_1" shape="[-239.60],6.40 [-239.60],-6.40 [-241.82],-6.84 [-242.60],-7.40 [-243.16],-8.18 [-243.49],-9.18 [-243.60],-10.40 [-250.00],-10.40 [-250.44],-8.18 [-251.00],-7.40 [-251.78],-6.84 [-252.78],-6.51 [-254.00],-6.40 [-254.00],0.00 [-250.74],0.47 [-248.52],1.66 [-245.08],4.74 [-242.86],5.93">
        <request index="0" response="1100" foes="1100" cont="0"/>
        <request index="1" response="1100" foes="1100" cont="0"/>
        <request index="2" response="0000" foes="0011" cont="0"/>
        <request index="3" response="0000" foes="0011" cont="0"/>
    </junction>
    <junction id="DA" type="dead_end" x="[-250.00]" y="[-250.00]" incLanes="" intLanes="" shape="[-250.00],[-250.00] [-243.60],[-250.00]"/>
    <junction id="DB" type="dead_end" x="[-500.00]" y="0.00" incLanes="" intLanes="" shape="[-500.00],0.00 [-500.00],-6.40"/>
    <junction id="TL" type="traffic_light" x="0.00" y="0.00" incLanes="A2TL_0 A2TL_1 B2TL_0 B2TL_1 C2TL_0 C2TL_1 D2TL_0 D2TL_1" intLanes=":TL_0_0 :TL_1_0 :TL_1_1 :TL_3_0 :TL_4_0 :TL_4_1 :TL_6_0 :TL_7_0 :TL_7_1 :TL_9_0 :TL_10_0 :TL_10_1" shape="-6.40,10.40 6.40,10.40 6.84,8.18 7.40,7.40 8.18,6.84 9.18,6.51 10.40,6.40 10.40,-6.40 8.18,-6.84 7.40,-7.40 6.84,-8.18 6.51,-9.18 6.40,-10.40 -6.40,-10.40 -6.84,-8.18 -7.40,-7.40 -8.18,-6.84 -9.18,-6.51 -10.40,-6.40 -10.40,6.40 -8.18,6.84 -7.40,7.40 -6.84,8.18 -6.51,9.18">
        <request index="0"  response="000000000000" foes="000000110000" cont="0"/>
        <request index="1"  response="000000000000" foes="111000110000" cont="0"/>
        <request index="2"  response="000000000000" foes="111000110000" cont="0"/>
        <request index="3"  response="000110000000" foes="000110000000" cont="0"/>
        <request index="4"  response="000110000111" foes="000110000111" cont="0"/>
        <request index="5"  response="000110000111" foes="000110000111" cont="0"/>
        <request index="6"  response="000000000000" foes="110000000000" cont="0"/>
        <request index="7"  response="000000000000" foes="110000111000" cont="0"/>
        <request index="8"  response="000000000000" foes="110000111000" cont="0"/>
        <request index="9"  response="000000000110" foes="000000000110" cont="0"/>
        <request index="10" response="000111000110" foes="000111000110" cont="0"/>
        <request index="11" response="000111000110" foes="000111000110" cont="0"/>
    </junction>

    <connection from="A2TL" to="TL2D" fromLane="0" toLane="0" via=":TL_0_0" tl="TL" linkIndex="0" dir="r" state="O"/>
    <connection from="A2TL" to="TL2C" fromLane="0" toLane="0" via=":TL_1_0" tl="TL" linkIndex="1" dir="s" state="O"/>
    <connection from="A2TL" to="TL2C" fromLane="1" toLane="1" via=":TL_1_1" tl="TL" linkIndex="2" dir="s" state="O"/>
    <connection from="AA2A" to="A2TL" fromLane="0" toLane="0" via=":A_2_0" tl="A" linkIndex="2" dir="r" state="o"/>
    <connection from="AA2A" to="A2TL" fromLane="1" toLane="1" via=":A_2_1" tl="A" linkIndex="3" dir="r" state="o"/>
    <connection from="AB2A" to="A2TL" fromLane="0" toLane="0" via=":A_0_0" tl="A" linkIndex="0" dir="s" state="O"/>
    <connection from="AB2A" to="A2TL" fromLane="1" toLane="1" via=":A_0_1" tl="A" linkIndex="1" dir="s" state="O"/>
    <connection from="B2TL" to="TL2A" fromLane="0" toLane="0" via=":TL_3_0" tl="TL" linkIndex="3" dir="r" state="o"/>
    <connection from="B2TL" to="TL2D" fromLane="0" toLane="0" via=":TL_4_0" tl="TL" linkIndex="4" dir="s" state="o"/>
    <connection from="B2TL" to="TL2D" fromLane="1" toLane="1" via=":TL_4_1" tl="TL" linkIndex="5" dir="s" state="o"/>
    <connection from="BA2B" to="B2TL" fromLane="0" toLane="0" via=":B_0_0" tl="B" linkIndex="0" dir="r" state="o"/>
    <connection from="BA2B" to="B2TL" fromLane="1" toLane="1" via=":B_0_1" tl="B" linkIndex="1" dir="r" state="o"/>
    <connection from="BB2B" to="B2TL" fromLane="0" toLane="0" via=":B_2_0" tl="B" linkIndex="2" dir="s" state="O"/>
    <connection from="BB2B" to="B2TL" fromLane="1" toLane="1" via=":B_2_1" tl="B" linkIndex="3" dir="s" state="O"/>
    <connection from="C2TL" to="TL2B" fromLane="0" toLane="0" via=":TL_6_0" tl="TL" linkIndex="6" dir="r" state="O"/>
    <connection from="C2TL" to="TL2A" fromLane="0" toLane="0" via=":TL_7_0" tl="TL" linkIndex="7" dir="s" state="O"/>
    <connection from="C2TL" to="TL2A" fromLane="1" toLane="1" via=":TL_7_1" tl="TL" linkIndex="8" dir="s" state="O"/>
    <connection from="CA2C" to="C2TL" fromLane="0" toLane="0" via=":C_0_0" tl="C" linkIndex="0" dir="r" state="o"/>
    <connection from="CA2C" to="C2TL" fromLane="1" toLane="1" via=":C_0_1" tl="C" linkIndex="1" dir="r" state="o"/>
    <connection from="CB2C" to="C2TL" fromLane="0" toLane="0" via=":C_2_0" tl="C" linkIndex="2" dir="s" state="O"/>
    <connection from="CB2C" to="C2TL" fromLane="1" toLane="1" via=":C_2_1" tl="C" linkIndex="3" dir="s" state="O"/>
    <connection from="D2TL" to="TL2C" fromLane="0" toLane="0" via=":TL_9_0" tl="TL" linkIndex="9" dir="r" state="o"/>
    <connection from="D2TL" to="TL2B" fromLane="0" toLane="0" via=":TL_10_0" tl="TL" linkIndex="10" dir="s" state="o"/>
    <connection from="D2TL" to="TL2B" fromLane="1" toLane="1" via=":TL_10_1" tl="TL" linkIndex="11" dir="s" state="o"/>
    <connection from="DA2D" to="D2TL" fromLane="0" toLane="0" via=":D_0_0" tl="D" linkIndex="0" dir="r" state="o"/>
    <connection from="DA2D" to="D2TL" fromLane="1" toLane="1" via=":D_0_1" tl="D" linkIndex="1" dir="r" state="o"/>
    <connection from="DB2D" to="D2TL" fromLane="0" toLane="0" via=":D_2_0" tl="D" linkIndex="2" dir="s" state="O"/>
    <connection from="DB2D" to="D2TL" fromLane="1" toLane="1" via=":D_2_1" tl="D" linkIndex="3" dir="s" state="O"/>

    <connection from=":A_0" to="A2TL" fromLane="0" toLane="0" dir="s" state="M"/>
    <connection from=":A_0" to="A2TL" fromLane="1" toLane="1" dir="s" state="M"/>
    <connection from=":A_2" to="A2TL" fromLane="0" toLane="0" dir="r" state="M"/>
    <connection from=":A_2" to="A2TL" fromLane="1" toLane="1" dir="r" state="M"/>
    <connection from=":B_0" to="B2TL" fromLane="0" toLane="0" dir="r" state="M"/>
    <connection from=":B_0" to="B2TL" fromLane="1" toLane="1" dir="r" state="M"/>
    <connection from=":B_2" to="B2TL" fromLane="0" toLane="0" dir="s" state="M"/>
    <connection from=":B_2" to="B2TL" fromLane="1" toLane="1" dir="s" state="M"/>
    <connection from=":C_0" to="C2TL" fromLane="0" toLane="0" dir="r" state="M"/>
    <connection from=":C_0" to="C2TL" fromLane="1" toLane="1" dir="r" state="M"/>
    <connection from=":C_2" to="C2TL" fromLane="0" toLane="0" dir="s" state="M"/>
    <connection from=":C_2" to="C2TL" fromLane="1" toLane="1" dir="s" state="M"/>
    <connection from=":D_0" to="D2TL" fromLane="0" toLane="0" dir="r" state="M"/>
    <connection from=":D_0" to="D2TL" fromLane="1" toLane="1" dir="r" state="M"/>
    <connection from=":D_2" to="D2TL" fromLane="0" toLane="0" dir="s" state="M"/>
    <connection from=":D_2" to="D2TL" fromLane="1" toLane="1" dir="s" state="M"/>
    <connection from=":TL_0" to="TL2D" fromLane="0" toLane="0" dir="r" state="M"/>
    <connection from=":TL_1" to="TL2C" fromLane="0" toLane="0" dir="s" state="M"/>
    <connection from=":TL_1" to="TL2C" fromLane="1" toLane="1" dir="s" state="M"/>
    <connection from=":TL_3" to="TL2A" fromLane="0" toLane="0" dir="r" state="M"/>
    <connection from=":TL_4" to="TL2D" fromLane="0" toLane="0" dir="s" state="M"/>
    <connection from=":TL_4" to="TL2D" fromLane="1" toLane="1" dir="s" state="M"/>
    <connection from=":TL_6" to="TL2B" fromLane="0" toLane="0" dir="r" state="M"/>
    <connection from=":TL_7" to="TL2A" fromLane="0" toLane="0" dir="s" state="M"/>
    <connection from=":TL_7" to="TL2A" fromLane="1" toLane="1" dir="s" state="M"/>
    <connection from=":TL_9" to="TL2C" fromLane="0" toLane="0" dir="r" state="M"/>
    <connection from=":TL_10" to="TL2B" fromLane="0" toLane="0" dir="s" state="M"/>
    <connection from=":TL_10" to="TL2B" fromLane="1" toLane="1" dir="s" state="M"/>

</net>
