<net xmlns:xsi="http://www.w3.org/2001/XMLSchema-instance" version="1.9" junctionCornerDetail="5" limitTurnSpeed="5.50" xsi:noNamespaceSchemaLocation="http://sumo.dlr.de/xsd/net_file.xsd">

    <location netOffset="642.98,599.85" convBoundary="0.00,0.00,1272.80,1543.10" origBoundary="-642.98,-599.85,629.82,943.26" projParameter="!" />

    <edge id=":A_0" function="internal">
        <lane id=":A_0_0" index="0" speed="6.51" length="9.03" shape="634.98,1085.07,-6.04 634.63,1082.62,-6.04 633.58,1080.87,-6.04 631.83,1079.82,-6.04 629.38,1079.47,-6.04" />
    </edge>
    <edge id=":A_1" function="internal">
        <lane id=":A_1_0" index="0" speed="11.18" length="27.20" shape="634.98,1085.07,-6.04 634.98,1057.87,-5.86" />
        <lane id=":A_1_1" index="1" speed="11.18" length="27.20" shape="638.18,1085.07,-6.04 638.18,1057.87,-5.86" />
        <lane id=":A_1_2" index="2" speed="11.18" length="27.20" shape="641.38,1085.07,-6.04 641.38,1057.87,-5.86" />
    </edge>
    <edge id=":A_4" function="internal">
        <lane id=":A_4_0" index="0" speed="10.36" length="5.01" shape="641.38,1085.07,-6.04 642.09,1080.11,-6.04" />
    </edge>
    <edge id=":A_5" function="internal">
        <lane id=":A_5_0" index="0" speed="3.65" length="1.44" shape="641.38,1085.07,-6.04 642.18,1083.87,-6.04" />
    </edge>
    <edge id=":A_24" function="internal">
        <lane id=":A_24_0" index="0" speed="10.36" length="19.50" shape="642.09,1080.11,-6.04 642.33,1078.42,-6.04 645.18,1073.67,-6.04 649.93,1070.82,-6.04 656.58,1069.87,-6.04" />
    </edge>
    <edge id=":A_25" function="internal">
        <lane id=":A_25_0" index="0" speed="3.65" length="3.23" shape="642.18,1083.87,-6.04 642.98,1083.47,-6.04 643.78,1083.87,-6.04 644.58,1085.07,-6.04" />
    </edge>
    <edge id=":A_6" function="internal">
        <lane id=":A_6_0" index="0" speed="6.51" length="9.03" shape="656.58,1079.47,-6.04 654.13,1079.82,-6.04 652.38,1080.87,-6.04 651.33,1082.62,-6.04 650.98,1085.07,-6.04" />
    </edge>
    <edge id=":A_7" function="internal">
        <lane id=":A_7_0" index="0" speed="11.18" length="27.20" shape="656.58,1079.47,-6.04 629.38,1079.47,-6.04" />
        <lane id=":A_7_1" index="1" speed="11.18" length="27.20" shape="656.58,1076.27,-6.04 629.38,1076.27,-6.04" />
        <lane id=":A_7_2" index="2" speed="11.18" length="27.20" shape="656.58,1073.07,-6.04 629.38,1073.07,-6.04" />
    </edge>
    <edge id=":A_10" function="internal">
        <lane id=":A_10_0" index="0" speed="10.36" length="5.01" shape="656.58,1073.07,-6.04 651.61,1072.37,-6.00" />
    </edge>
    <edge id=":A_11" function="internal">
        <lane id=":A_11_0" index="0" speed="3.65" length="1.44" shape="656.58,1073.07,-6.04 655.38,1072.27,-6.04" />
    </edge>
    <edge id=":A_26" function="internal">
        <lane id=":A_26_0" index="0" speed="10.36" length="19.50" shape="651.61,1072.37,-6.00 649.93,1072.12,-5.99 645.18,1069.27,-5.95 642.33,1064.52,-5.91 641.38,1057.87,-5.86" />
    </edge>
    <edge id=":A_27" function="internal">
        <lane id=":A_27_0" index="0" speed="3.65" length="3.23" shape="655.38,1072.27,-6.04 654.98,1071.47,-6.04 655.38,1070.67,-6.04 656.58,1069.87,-6.04" />
    </edge>
    <edge id=":A_12" function="internal">
        <lane id=":A_12_0" index="0" speed="6.51" length="9.03" shape="650.98,1057.87,-5.86 651.33,1060.32,-5.91 652.38,1062.07,-5.95 654.13,1063.12,-5.99 656.58,1063.47,-6.04" />
    </edge>
    <edge id=":A_13" function="internal">
        <lane id=":A_13_0" index="0" speed="11.18" length="27.20" shape="650.98,1057.87,-5.86 650.98,1085.07,-6.04" />
        <lane id=":A_13_1" index="1" speed="11.18" length="27.20" shape="647.78,1057.87,-5.86 647.78,1085.07,-6.04" />
        <lane id=":A_13_2" index="2" speed="11.18" length="27.20" shape="644.58,1057.87,-5.86 644.58,1085.07,-6.04" />
    </edge>
    <edge id=":A_16" function="internal">
        <lane id=":A_16_0" index="0" speed="10.36" length="5.01" shape="644.58,1057.87,-5.86 643.87,1062.84,-5.90" />
    </edge>
    <edge id=":A_17" function="internal">
        <lane id=":A_17_0" index="0" speed="3.65" length="1.44" shape="644.58,1057.87,-5.86 643.78,1059.07,-5.86" />
    </edge>
    <edge id=":A_28" function="internal">
        <lane id=":A_28_0" index="0" speed="10.36" length="19.50" shape="643.87,1062.84,-5.90 643.63,1064.52,-5.91 640.78,1069.27,-5.95 636.03,1072.12,-5.99 629.38,1073.07,-6.04" />
    </edge>
    <edge id=":A_29" function="internal">
        <lane id=":A_29_0" index="0" speed="3.65" length="3.23" shape="643.78,1059.07,-5.86 642.98,1059.47,-5.86 642.18,1059.07,-5.86 641.38,1057.87,-5.86" />
    </edge>
    <edge id=":A_18" function="internal">
        <lane id=":A_18_0" index="0" speed="6.51" length="9.03" shape="629.38,1063.47,-6.04 631.83,1063.12,-5.99 633.58,1062.07,-5.95 634.63,1060.32,-5.91 634.98,1057.87,-5.86" />
    </edge>
    <edge id=":A_19" function="internal">
        <lane id=":A_19_0" index="0" speed="11.18" length="27.20" shape="629.38,1063.47,-6.04 656.58,1063.47,-6.04" />
        <lane id=":A_19_1" index="1" speed="11.18" length="27.20" shape="629.38,1066.67,-6.04 656.58,1066.67,-6.04" />
        <lane id=":A_19_2" index="2" speed="11.18" length="27.20" shape="629.38,1069.87,-6.04 656.58,1069.87,-6.04" />
    </edge>
    <edge id=":A_22" function="internal">
        <lane id=":A_22_0" index="0" speed="10.36" length="5.01" shape="629.38,1069.87,-6.04 634.34,1070.58,-6.04" />
    </edge>
    <edge id=":A_23" function="internal">
        <lane id=":A_23_0" index="0" speed="3.65" length="1.44" shape="629.38,1069.87,-6.04 630.58,1070.67,-6.04" />
    </edge>
    <edge id=":A_30" function="internal">
        <lane id=":A_30_0" index="0" speed="10.36" length="19.50" shape="634.34,1070.58,-6.04 636.03,1070.82,-6.04 640.78,1073.67,-6.04 643.63,1078.42,-6.04 644.58,1085.07,-6.04" />
    </edge>
    <edge id=":A_31" function="internal">
        <lane id=":A_31_0" index="0" speed="3.65" length="3.23" shape="630.58,1070.67,-6.04 630.98,1071.47,-6.04 630.58,1072.27,-6.04 629.38,1073.07,-6.04" />
    </edge>
    <edge id=":AA_0" function="internal">
        <lane id=":AA_0_0" index="0" speed="3.65" length="4.67" shape="171.35,1073.07,-6.04 170.15,1072.27,-6.04 169.75,1071.47,-6.04 170.15,1070.67,-6.04 171.35,1069.87,-6.04" />
    </edge>
    <edge id=":AB_0" function="internal">
        <lane id=":AB_0_0" index="0" speed="3.65" length="4.67" shape="644.58,1543.10,-6.04 643.78,1544.30,-6.04 642.98,1544.70,-6.04 642.18,1544.30,-6.04 641.38,1543.10,-6.04" />
    </edge>
    <edge id=":AC_0" function="internal">
        <lane id=":AC_0_0" index="0" speed="3.65" length="4.67" shape="1114.61,1069.87,-6.04 1115.81,1070.67,-6.04 1116.21,1071.47,-6.04 1115.81,1072.27,-6.04 1114.61,1073.07,-6.04" />
    </edge>
    <edge id=":B_0" function="internal">
        <lane id=":B_0_0" index="0" speed="6.51" length="9.03" shape="956.29,607.05,-6.53 955.94,604.60,-6.49 954.89,602.85,-6.45 953.14,601.80,-6.42 950.69,601.45,-6.38" />
    </edge>
    <edge id=":B_1" function="internal">
        <lane id=":B_1_0" index="0" speed="8.94" length="14.40" shape="956.29,607.05,-6.53 956.29,592.65,-6.53" />
    </edge>
    <edge id=":B_2" function="internal">
        <lane id=":B_2_0" index="0" speed="8.00" length="4.07" shape="956.29,607.05,-6.53 956.84,603.20,-6.53 956.93,603.04,-6.53" />
    </edge>
    <edge id=":B_3" function="internal">
        <lane id=":B_3_0" index="0" speed="3.65" length="1.44" shape="956.29,607.05,-6.53 957.09,605.85,-6.53" />
    </edge>
    <edge id=":B_16" function="internal">
        <lane id=":B_16_0" index="0" speed="8.00" length="10.13" shape="956.93,603.04,-6.53 958.49,600.45,-6.53 961.24,598.80,-6.53 965.09,598.25,-6.53" />
    </edge>
    <edge id=":B_17" function="internal">
        <lane id=":B_17_0" index="0" speed="3.65" length="3.23" shape="957.09,605.85,-6.53 957.89,605.45,-6.53 958.69,605.85,-6.53 959.49,607.05,-6.53" />
    </edge>
    <edge id=":B_4" function="internal">
        <lane id=":B_4_0" index="0" speed="6.51" length="9.03" shape="965.09,601.45,-6.53 962.64,601.80,-6.53 960.89,602.85,-6.53 959.84,604.60,-6.53 959.49,607.05,-6.53" />
    </edge>
    <edge id=":B_5" function="internal">
        <lane id=":B_5_0" index="0" speed="8.94" length="14.40" shape="965.09,601.45,-6.53 950.69,601.45,-6.38" />
    </edge>
    <edge id=":B_6" function="internal">
        <lane id=":B_6_0" index="0" speed="8.00" length="4.07" shape="965.09,601.45,-6.53 961.24,600.90,-6.53 961.09,600.80,-6.53" />
    </edge>
    <edge id=":B_7" function="internal">
        <lane id=":B_7_0" index="0" speed="3.65" length="1.44" shape="965.09,601.45,-6.53 963.89,600.65,-6.53" />
    </edge>
    <edge id=":B_18" function="internal">
        <lane id=":B_18_0" index="0" speed="8.00" length="10.13" shape="961.09,600.80,-6.53 958.49,599.25,-6.53 956.84,596.50,-6.53 956.29,592.65,-6.53" />
    </edge>
    <edge id=":B_19" function="internal">
        <lane id=":B_19_0" index="0" speed="3.65" length="3.23" shape="963.89,600.65,-6.53 963.49,599.85,-6.53 963.89,599.05,-6.53 965.09,598.25,-6.53" />
    </edge>
    <edge id=":B_8" function="internal">
        <lane id=":B_8_0" index="0" speed="6.51" length="9.03" shape="959.49,592.65,-6.53 959.84,595.10,-6.53 960.89,596.85,-6.53 962.64,597.90,-6.53 965.09,598.25,-6.53" />
    </edge>
    <edge id=":B_9" function="internal">
        <lane id=":B_9_0" index="0" speed="8.94" length="14.40" shape="959.49,592.65,-6.53 959.49,607.05,-6.53" />
    </edge>
    <edge id=":B_10" function="internal">
        <lane id=":B_10_0" index="0" speed="8.00" length="4.07" shape="959.49,592.65,-6.53 958.94,596.50,-6.49 958.85,596.65,-6.48" />
    </edge>
    <edge id=":B_11" function="internal">
        <lane id=":B_11_0" index="0" speed="3.65" length="1.44" shape="959.49,592.65,-6.53 958.69,593.85,-6.53" />
    </edge>
    <edge id=":B_20" function="internal">
        <lane id=":B_20_0" index="0" speed="8.00" length="10.13" shape="958.85,596.65,-6.48 957.29,599.25,-6.45 954.54,600.90,-6.42 950.69,601.45,-6.38" />
    </edge>
    <edge id=":B_21" function="internal">
        <lane id=":B_21_0" index="0" speed="3.65" length="3.23" shape="958.69,593.85,-6.53 957.89,594.25,-6.53 957.09,593.85,-6.53 956.29,592.65,-6.53" />
    </edge>
    <edge id=":B_12" function="internal">
        <lane id=":B_12_0" index="0" speed="6.51" length="9.03" shape="950.69,598.25,-6.37 953.14,597.90,-6.41 954.89,596.85,-6.45 955.94,595.10,-6.48 956.29,592.65,-6.53" />
    </edge>
    <edge id=":B_13" function="internal">
        <lane id=":B_13_0" index="0" speed="8.94" length="14.40" shape="950.69,598.25,-6.37 965.09,598.25,-6.53" />
    </edge>
    <edge id=":B_14" function="internal">
        <lane id=":B_14_0" index="0" speed="8.00" length="4.07" shape="950.69,598.25,-6.37 954.54,598.80,-6.41 954.69,598.89,-6.41" />
    </edge>
    <edge id=":B_15" function="internal">
        <lane id=":B_15_0" index="0" speed="3.65" length="1.44" shape="950.69,598.25,-6.37 951.89,599.05,-6.37" />
    </edge>
    <edge id=":B_22" function="internal">
        <lane id=":B_22_0" index="0" speed="8.00" length="10.13" shape="954.69,598.89,-6.41 957.29,600.45,-6.45 958.94,603.20,-6.48 959.49,607.05,-6.53" />
    </edge>
    <edge id=":B_23" function="internal">
        <lane id=":B_23_0" index="0" speed="3.65" length="3.23" shape="951.89,599.05,-6.37 952.29,599.85,-6.37 951.89,600.65,-6.37 950.69,601.45,-6.38" />
    </edge>
    <edge id=":BA_0" function="internal">
        <lane id=":BA_0_0" index="0" speed="3.65" length="4.67" shape="959.49,914.76,-6.53 958.69,915.96,-6.53 957.89,916.36,-6.53 957.09,915.96,-6.53 956.29,914.76,-6.53" />
    </edge>
    <edge id=":BB_0" function="internal">
        <lane id=":BB_0_0" index="0" speed="3.65" length="4.67" shape="1272.80,598.25,-6.53 1274.00,599.05,-6.53 1274.40,599.85,-6.53 1274.00,600.65,-6.53 1272.80,601.45,-6.53" />
    </edge>
    <edge id=":BC_0" function="internal">
        <lane id=":BC_0_0" index="0" speed="3.65" length="4.67" shape="956.29,284.94,-6.53 957.09,283.74,-6.53 957.89,283.34,-6.53 958.69,283.74,-6.53 959.49,284.94,-6.53" />
    </edge>
    <edge id=":C_0" function="internal">
        <lane id=":C_0_0" index="0" speed="6.51" length="9.03" shape="634.98,313.52,-1.66 634.63,311.07,-1.68 633.58,309.32,-1.70 631.83,308.27,-1.72 629.38,307.92,-1.74" />
    </edge>
    <edge id=":C_1" function="internal">
        <lane id=":C_1_0" index="0" speed="13.41" length="27.20" shape="634.98,313.52,-1.66 634.98,286.32,-1.74" />
        <lane id=":C_1_1" index="1" speed="13.41" length="27.20" shape="638.18,313.52,-1.66 638.18,286.32,-1.74" />
        <lane id=":C_1_2" index="2" speed="13.41" length="27.20" shape="641.38,313.52,-1.66 641.38,286.32,-1.74" />
    </edge>
    <edge id=":C_4" function="internal">
        <lane id=":C_4_0" index="0" speed="10.36" length="5.01" shape="641.38,313.52,-1.66 642.09,308.56,-1.67" />
    </edge>
    <edge id=":C_5" function="internal">
        <lane id=":C_5_0" index="0" speed="3.65" length="1.44" shape="641.38,313.52,-1.66 642.18,312.32,-1.66" />
    </edge>
    <edge id=":C_24" function="internal">
        <lane id=":C_24_0" index="0" speed="10.36" length="19.50" shape="642.09,308.56,-1.67 642.33,306.87,-1.68 645.18,302.12,-1.70 649.93,299.27,-1.72 656.58,298.32,-1.74" />
    </edge>
    <edge id=":C_25" function="internal">
        <lane id=":C_25_0" index="0" speed="3.65" length="3.23" shape="642.18,312.32,-1.66 642.98,311.92,-1.66 643.78,312.32,-1.66 644.58,313.52,-1.66" />
    </edge>
    <edge id=":C_6" function="internal">
        <lane id=":C_6_0" index="0" speed="6.51" length="9.03" shape="656.58,307.92,-1.74 654.13,308.27,-1.72 652.38,309.32,-1.70 651.33,311.07,-1.68 650.98,313.52,-1.66" />
    </edge>
    <edge id=":C_7" function="internal">
        <lane id=":C_7_0" index="0" speed="13.41" length="27.20" shape="656.58,307.92,-1.74 629.38,307.92,-1.74" />
        <lane id=":C_7_1" index="1" speed="13.41" length="27.20" shape="656.58,304.72,-1.74 629.38,304.72,-1.74" />
        <lane id=":C_7_2" index="2" speed="13.41" length="27.20" shape="656.58,301.52,-1.74 629.38,301.52,-1.74" />
    </edge>
    <edge id=":C_10" function="internal">
        <lane id=":C_10_0" index="0" speed="10.36" length="5.01" shape="656.58,301.52,-1.74 651.61,300.81,-1.74" />
    </edge>
    <edge id=":C_11" function="internal">
        <lane id=":C_11_0" index="0" speed="3.65" length="1.44" shape="656.58,301.52,-1.74 655.38,300.72,-1.74" />
    </edge>
    <edge id=":C_26" function="internal">
        <lane id=":C_26_0" index="0" speed="10.36" length="19.50" shape="651.61,300.81,-1.74 649.93,300.57,-1.74 645.18,297.72,-1.74 642.33,292.97,-1.74 641.38,286.32,-1.74" />
    </edge>
    <edge id=":C_27" function="internal">
        <lane id=":C_27_0" index="0" speed="3.65" length="3.23" shape="655.38,300.72,-1.74 654.98,299.92,-1.74 655.38,299.12,-1.74 656.58,298.32,-1.74" />
    </edge>
    <edge id=":C_12" function="internal">
        <lane id=":C_12_0" index="0" speed="6.51" length="9.03" shape="650.98,286.32,-1.74 651.33,288.77,-1.74 652.38,290.52,-1.74 654.13,291.57,-1.74 656.58,291.92,-1.74" />
    </edge>
    <edge id=":C_13" function="internal">
        <lane id=":C_13_0" index="0" speed="13.41" length="27.20" shape="650.98,286.32,-1.74 650.98,313.52,-1.66" />
        <lane id=":C_13_1" index="1" speed="13.41" length="27.20" shape="647.78,286.32,-1.74 647.78,313.52,-1.66" />
        <lane id=":C_13_2" index="2" speed="13.41" length="27.20" shape="644.58,286.32,-1.74 644.58,313.52,-1.66" />
    </edge>
    <edge id=":C_16" function="internal">
        <lane id=":C_16_0" index="0" speed="10.36" length="5.01" shape="644.58,286.32,-1.74 643.87,291.29,-1.74" />
    </edge>
    <edge id=":C_17" function="internal">
        <lane id=":C_17_0" index="0" speed="3.65" length="1.44" shape="644.58,286.32,-1.74 643.78,287.52,-1.74" />
    </edge>
    <edge id=":C_28" function="internal">
        <lane id=":C_28_0" index="0" speed="10.36" length="19.50" shape="643.87,291.29,-1.74 643.63,292.97,-1.74 640.78,297.72,-1.74 636.03,300.57,-1.74 629.38,301.52,-1.74" />
    </edge>
    <edge id=":C_29" function="internal">
        <lane id=":C_29_0" index="0" speed="3.65" length="3.23" shape="643.78,287.52,-1.74 642.98,287.92,-1.74 642.18,287.52,-1.74 641.38,286.32,-1.74" />
    </edge>
    <edge id=":C_18" function="internal">
        <lane id=":C_18_0" index="0" speed="6.51" length="9.03" shape="629.38,291.92,-1.74 631.83,291.57,-1.74 633.58,290.52,-1.74 634.63,288.77,-1.74 634.98,286.32,-1.74" />
    </edge>
    <edge id=":C_19" function="internal">
        <lane id=":C_19_0" index="0" speed="13.41" length="27.20" shape="629.38,291.92,-1.74 656.58,291.92,-1.74" />
        <lane id=":C_19_1" index="1" speed="13.41" length="27.20" shape="629.38,295.12,-1.74 656.58,295.12,-1.74" />
        <lane id=":C_19_2" index="2" speed="13.41" length="27.20" shape="629.38,298.32,-1.74 656.58,298.32,-1.74" />
    </edge>
    <edge id=":C_22" function="internal">
        <lane id=":C_22_0" index="0" speed="10.36" length="5.01" shape="629.38,298.32,-1.74 634.34,299.03,-1.72" />
    </edge>
    <edge id=":C_23" function="internal">
        <lane id=":C_23_0" index="0" speed="3.65" length="1.44" shape="629.38,298.32,-1.74 630.58,299.12,-1.74" />
    </edge>
    <edge id=":C_30" function="internal">
        <lane id=":C_30_0" index="0" speed="10.36" length="19.50" shape="634.34,299.03,-1.72 636.03,299.27,-1.72 640.78,302.12,-1.70 643.63,306.87,-1.68 644.58,313.52,-1.66" />
    </edge>
    <edge id=":C_31" function="internal">
        <lane id=":C_31_0" index="0" speed="3.65" length="3.23" shape="630.58,299.12,-1.74 630.98,299.92,-1.74 630.58,300.72,-1.74 629.38,301.52,-1.74" />
    </edge>
    <edge id=":CA_0" function="internal">
        <lane id=":CA_0_0" index="0" speed="3.65" length="4.67" shape="942.90,298.32,-1.74 944.10,299.12,-1.74 944.50,299.92,-1.74 944.10,300.72,-1.74 942.90,301.52,-1.74" />
    </edge>
    <edge id=":CB_0" function="internal">
        <lane id=":CB_0_0" index="0" speed="3.65" length="4.67" shape="641.38,0.00,-1.74 642.18,-1.20,-1.74 642.98,-1.60,-1.74 643.78,-1.20,-1.74 644.58,0.00,-1.74" />
    </edge>
    <edge id=":CC_0" function="internal">
        <lane id=":CC_0_0" index="0" speed="3.65" length="4.67" shape="343.05,301.52,-1.74 341.85,300.72,-1.74 341.45,299.92,-1.74 341.85,299.12,-1.74 343.05,298.32,-1.74" />
    </edge>
    <edge id=":C_intern_0" function="internal">
        <lane id=":C_intern_0_0" index="0" speed="13.41" length="8.60" shape="650.98,545.85,-0.31 651.48,548.31,-0.30 652.58,549.85,-0.29 653.68,551.38,-0.28 654.18,553.85,-0.27" />
        <lane id=":C_intern_0_1" index="1" speed="13.41" length="8.60" shape="647.78,545.85,-0.31 648.28,548.31,-0.30 649.38,549.85,-0.29 650.48,551.38,-0.28 650.98,553.85,-0.27" />
        <lane id=":C_intern_0_2" index="2" speed="13.41" length="8.60" shape="644.58,545.85,-0.31 645.08,548.31,-0.30 646.18,549.85,-0.29 647.28,551.38,-0.28 647.78,553.85,-0.27" />
        <lane id=":C_intern_0_3" index="3" speed="13.41" length="8.60" shape="644.58,545.85,-0.31 644.58,553.85,-0.27" />
    </edge>
    <edge id=":D_0" function="internal">
        <lane id=":D_0_0" index="0" speed="6.51" length="9.03" shape="316.69,607.05,7.94 316.34,604.60,7.94 315.29,602.85,7.94 313.54,601.80,7.94 311.09,601.45,7.94" />
    </edge>
    <edge id=":D_1" function="internal">
        <lane id=":D_1_0" index="0" speed="8.94" length="17.95" shape="316.69,607.05,7.94 317.19,601.23,7.94 318.29,596.77,7.94 319.39,593.05,7.94 319.89,589.45,7.94" />
    </edge>
    <edge id=":D_2" function="internal">
        <lane id=":D_2_0" index="0" speed="8.67" length="4.68" shape="319.89,607.05,7.94 320.64,603.20,7.94 321.12,602.61,7.94" />
    </edge>
    <edge id=":D_3" function="internal">
        <lane id=":D_3_0" index="0" speed="3.65" length="1.44" shape="319.89,607.05,7.94 320.69,605.85,7.94" />
    </edge>
    <edge id=":D_17" function="internal">
        <lane id=":D_17_0" index="0" speed="8.67" length="12.17" shape="321.12,602.61,7.94 322.89,600.45,7.94 326.64,598.80,7.94 331.89,598.25,7.94" />
    </edge>
    <edge id=":D_18" function="internal">
        <lane id=":D_18_0" index="0" speed="3.65" length="3.23" shape="320.69,605.85,7.94 321.49,605.45,7.94 322.29,605.85,7.94 323.09,607.05,7.94" />
    </edge>
    <edge id=":D_4" function="internal">
        <lane id=":D_4_0" index="0" speed="7.33" length="11.73" shape="331.89,601.45,7.94 328.04,601.80,7.94 325.29,602.85,7.94 323.64,604.60,7.94 323.09,607.05,7.94" />
    </edge>
    <edge id=":D_5" function="internal">
        <lane id=":D_5_0" index="0" speed="8.94" length="20.80" shape="331.89,601.45,7.94 311.09,601.45,7.94" />
    </edge>
    <edge id=":D_6" function="internal">
        <lane id=":D_6_0" index="0" speed="8.94" length="5.01" shape="331.89,601.45,7.94 326.93,600.74,7.94" />
    </edge>
    <edge id=":D_7" function="internal">
        <lane id=":D_7_0" index="0" speed="3.65" length="1.44" shape="331.89,601.45,7.94 330.69,600.65,7.94" />
    </edge>
    <edge id=":D_19" function="internal">
        <lane id=":D_19_0" index="0" speed="8.94" length="14.34" shape="326.93,600.74,7.94 326.64,600.70,7.94 322.89,598.45,7.94 320.64,594.70,7.94 319.89,589.45,7.94" />
    </edge>
    <edge id=":D_20" function="internal">
        <lane id=":D_20_0" index="0" speed="3.65" length="3.23" shape="330.69,600.65,7.94 330.29,599.85,7.94 330.69,599.05,7.94 331.89,598.25,7.94" />
    </edge>
    <edge id=":D_8" function="internal">
        <lane id=":D_8_0" index="0" speed="6.51" length="9.03" shape="326.29,589.45,7.94 326.64,591.90,7.94 327.69,593.65,7.94 329.44,594.70,7.94 331.89,595.05,7.94" />
    </edge>
    <edge id=":D_9" function="internal">
        <lane id=":D_9_0" index="0" speed="8.94" length="17.95" shape="326.29,589.45,7.94 325.79,595.27,7.94 324.69,599.73,7.94 323.59,603.44,7.94 323.09,607.05,7.94" />
    </edge>
    <edge id=":D_10" function="internal">
        <lane id=":D_10_0" index="0" speed="8.94" length="8.24" shape="323.09,589.45,7.94 322.34,594.70,7.94 320.83,597.21,7.94" />
    </edge>
    <edge id=":D_11" function="internal">
        <lane id=":D_11_0" index="0" speed="3.65" length="1.44" shape="323.09,589.45,7.94 322.29,590.65,7.94" />
    </edge>
    <edge id=":D_21" function="internal">
        <lane id=":D_21_0" index="0" speed="8.94" length="11.12" shape="320.83,597.21,7.94 320.09,598.45,7.94 316.34,600.70,7.94 311.09,601.45,7.94" />
    </edge>
    <edge id=":D_22" function="internal">
        <lane id=":D_22_0" index="0" speed="3.65" length="3.23" shape="322.29,590.65,7.94 321.49,591.05,7.94 320.69,590.65,7.94 319.89,589.45,7.94" />
    </edge>
    <edge id=":D_12" function="internal">
        <lane id=":D_12_0" index="0" speed="7.33" length="11.73" shape="311.09,595.05,7.94 314.94,594.70,7.94 317.69,593.65,7.94 319.34,591.90,7.94 319.89,589.45,7.94" />
    </edge>
    <edge id=":D_13" function="internal">
        <lane id=":D_13_0" index="0" speed="8.94" length="20.80" shape="311.09,595.05,7.94 331.89,595.05,7.94" />
        <lane id=":D_13_1" index="1" speed="8.94" length="20.80" shape="311.09,598.25,7.94 331.89,598.25,7.94" />
    </edge>
    <edge id=":D_15" function="internal">
        <lane id=":D_15_0" index="0" speed="8.67" length="5.56" shape="311.09,598.25,7.94 316.34,598.80,7.94 316.60,598.91,7.94" />
    </edge>
    <edge id=":D_16" function="internal">
        <lane id=":D_16_0" index="0" speed="3.65" length="1.44" shape="311.09,598.25,7.94 312.29,599.05,7.94" />
    </edge>
    <edge id=":D_23" function="internal">
        <lane id=":D_23_0" index="0" speed="8.67" length="11.29" shape="316.60,598.91,7.94 320.09,600.45,7.94 322.34,603.20,7.94 323.09,607.05,7.94" />
    </edge>
    <edge id=":D_24" function="internal">
        <lane id=":D_24_0" index="0" speed="3.65" length="3.23" shape="312.29,599.05,7.94 312.69,599.85,7.94 312.29,600.65,7.94 311.09,601.45,7.94" />
    </edge>
    <edge id=":DA_0" function="internal">
        <lane id=":DA_0_0" index="0" speed="3.65" length="4.67" shape="319.89,278.36,7.94 320.69,277.16,7.94 321.49,276.76,7.94 322.29,277.16,7.94 323.09,278.36,7.94" />
    </edge>
    <edge id=":DB_0" function="internal">
        <lane id=":DB_0_0" index="0" speed="3.65" length="4.67" shape="-0.00,601.45,7.94 -1.20,600.65,7.94 -1.60,599.85,7.94 -1.20,599.05,7.94 0.00,598.25,7.94" />
    </edge>
    <edge id=":DC_0" function="internal">
        <lane id=":DC_0_0" index="0" speed="3.65" length="4.67" shape="323.09,921.34,7.94 322.29,922.54,7.94 321.49,922.94,7.94 320.69,922.54,7.94 319.89,921.34,7.94" />
    </edge>
    <edge id=":TL_0" function="internal">
        <lane id=":TL_0_0" index="0" speed="6.51" length="9.03" shape="634.98,607.05,-0.09 634.63,604.60,-0.07 633.58,602.85,-0.05 631.83,601.80,-0.03 629.38,601.45" />
    </edge>
    <edge id=":TL_1" function="internal">
        <lane id=":TL_1_0" index="0" speed="12.29" length="17.60" shape="634.98,607.05,-0.09 634.98,589.45,-0.06" />
        <lane id=":TL_1_1" index="1" speed="12.29" length="17.60" shape="638.18,607.05,-0.09 638.18,589.45,-0.06" />
        <lane id=":TL_1_2" index="2" speed="12.29" length="17.60" shape="641.38,607.05,-0.09 641.38,589.45,-0.06" />
    </edge>
    <edge id=":TL_4" function="internal">
        <lane id=":TL_4_0" index="0" speed="9.94" length="3.62" shape="641.38,607.05,-0.09 642.41,603.58,-0.08" />
    </edge>
    <edge id=":TL_15" function="internal">
        <lane id=":TL_15_0" index="0" speed="9.94" length="18.86" shape="642.41,603.58,-0.08 642.53,603.20,-0.08 645.98,600.45,-0.06 651.73,598.80,-0.03 659.78,598.25" />
    </edge>
    <edge id=":TL_5" function="internal">
        <lane id=":TL_5_0" index="0" speed="7.33" length="11.73" shape="659.78,601.45 655.93,601.80,-0.03 653.18,602.85,-0.05 651.53,604.60,-0.07 650.98,607.05,-0.09" />
    </edge>
    <edge id=":TL_6" function="internal">
        <lane id=":TL_6_0" index="0" speed="8.94" length="30.40" shape="659.78,601.45 629.38,601.45" />
    </edge>
    <edge id=":TL_7" function="internal">
        <lane id=":TL_7_0" index="0" speed="7.33" length="11.73" shape="654.18,589.45,-0.06 654.53,593.30,-0.04 655.58,596.05,-0.03 657.33,597.70,-0.01 659.78,598.25" />
    </edge>
    <edge id=":TL_8" function="internal">
        <lane id=":TL_8_0" index="0" speed="12.29" length="17.98" shape="654.18,589.45,-0.06 653.68,594.71,-0.07 652.58,598.25,-0.08 651.48,601.78,-0.08 650.98,607.05,-0.09" />
        <lane id=":TL_8_1" index="1" speed="12.29" length="17.98" shape="650.98,589.45,-0.06 650.48,594.71,-0.07 649.38,598.25,-0.08 648.28,601.78,-0.08 647.78,607.05,-0.09" />
        <lane id=":TL_8_2" index="2" speed="12.29" length="17.98" shape="647.78,589.45,-0.06 647.28,594.71,-0.07 646.18,598.25,-0.08 645.08,601.78,-0.08 644.58,607.05,-0.09" />
    </edge>
    <edge id=":TL_11" function="internal">
        <lane id=":TL_11_0" index="0" speed="9.84" length="4.01" shape="644.58,589.45,-0.06 643.86,593.39,-0.05" />
    </edge>
    <edge id=":TL_16" function="internal">
        <lane id=":TL_16_0" index="0" speed="9.84" length="17.98" shape="643.86,593.39,-0.05 643.63,594.70,-0.05 640.78,598.45,-0.03 636.03,600.70,-0.02 629.38,601.45" />
    </edge>
    <edge id=":TL_12" function="internal">
        <lane id=":TL_12_0" index="0" speed="6.51" length="9.03" shape="629.38,595.05 631.83,594.70,-0.02 633.58,593.65,-0.03 634.63,591.90,-0.04 634.98,589.45,-0.06" />
    </edge>
    <edge id=":TL_13" function="internal">
        <lane id=":TL_13_0" index="0" speed="8.94" length="30.49" shape="629.38,595.05 637.64,595.55 646.45,596.65 654.32,597.75 659.78,598.25" />
        <lane id=":TL_13_1" index="1" speed="8.94" length="30.49" shape="629.38,598.25 659.78,598.25" />
    </edge>

    <edge id="A2AA" from="A" to="AA" priority="-1">
        <lane id="A2AA_0" index="0" speed="11.18" length="458.03" shape="629.38,1079.47,-6.04 171.35,1079.47,-6.04" />
        <lane id="A2AA_1" index="1" speed="11.18" length="458.03" shape="629.38,1076.27,-6.04 171.35,1076.27,-6.04" />
        <lane id="A2AA_2" index="2" speed="11.18" length="458.03" shape="629.38,1073.07,-6.04 171.35,1073.07,-6.04" />
    </edge>
    <edge id="A2AB" from="A" to="AB" priority="-1">
        <lane id="A2AB_0" index="0" speed="11.18" length="458.03" shape="650.98,1085.07,-6.04 650.98,1543.10,-6.04" />
        <lane id="A2AB_1" index="1" speed="11.18" length="458.03" shape="647.78,1085.07,-6.04 647.78,1543.10,-6.04" />
        <lane id="A2AB_2" index="2" speed="11.18" length="458.03" shape="644.58,1085.07,-6.04 644.58,1543.10,-6.04" />
    </edge>
    <edge id="A2AC" from="A" to="AC" priority="-1">
        <lane id="A2AC_0" index="0" speed="11.18" length="458.03" shape="656.58,1063.47,-6.04 1114.61,1063.47,-6.04" />
        <lane id="A2AC_1" index="1" speed="11.18" length="458.03" shape="656.58,1066.67,-6.04 1114.61,1066.67,-6.04" />
        <lane id="A2AC_2" index="2" speed="11.18" length="458.03" shape="656.58,1069.87,-6.04 1114.61,1069.87,-6.04" />
    </edge>
    <edge id="A2TL" from="A" to="TL" priority="-1">
        <lane id="A2TL_0" index="0" speed="11.18" length="450.87" shape="634.98,1057.87,-5.86 634.98,607.05,-0.09" />
        <lane id="A2TL_1" index="1" speed="11.18" length="450.87" shape="638.18,1057.87,-5.86 638.18,607.05,-0.09" />
        <lane id="A2TL_2" index="2" speed="11.18" length="450.87" shape="641.38,1057.87,-5.86 641.38,607.05,-0.09" />
    </edge>
    <edge id="AA2A" from="AA" to="A" priority="-1">
        <lane id="AA2A_0" index="0" speed="11.18" length="458.03" shape="171.35,1063.47,-6.04 629.38,1063.47,-6.04" />
        <lane id="AA2A_1" index="1" speed="11.18" length="458.03" shape="171.35,1066.67,-6.04 629.38,1066.67,-6.04" />
        <lane id="AA2A_2" index="2" speed="11.18" length="458.03" shape="171.35,1069.87,-6.04 629.38,1069.87,-6.04" />
    </edge>
    <edge id="AB2A" from="AB" to="A" priority="-1">