<net xmlns:xsi="http://www.w3.org/2001/XMLSchema-instance" version="1.9" junctionCornerDetail="5" limitTurnSpeed="5.50" xsi:noNamespaceSchemaLocation="http://sumo.dlr.de/xsd/net_file.xsd">

    <location netOffset="317.47,1260.95" convBoundary="0.00,0.00,2278.43,2521.90" origBoundary="-317.47,-1260.95,1960.95,1260.95" projParameter="!" />

    <edge id=":A_0" function="internal">
        <lane id=":A_0_0" index="0" speed="7.33" length="11.73" shape="306.27,1410.35,0.32 305.92,1406.50,0.32 304.87,1403.75,0.32 303.12,1402.10,0.32 300.67,1401.55,0.32" />
    </edge>
    <edge id=":A_1" function="internal">
        <lane id=":A_1_0" index="0" speed="15.65" length="33.60" shape="306.27,1410.35,0.32 306.27,1376.75,0.28" />
        <lane id=":A_1_1" index="1" speed="15.65" length="33.60" shape="309.47,1410.35,0.32 309.47,1376.75,0.28" />
        <lane id=":A_1_2" index="2" speed="15.65" length="33.60" shape="312.67,1410.35,0.32 312.67,1376.75,0.28" />
        <lane id=":A_1_3" index="3" speed="15.65" length="33.60" shape="315.87,1410.35,0.32 315.87,1376.75,0.28" />
    </edge>
    <edge id=":A_5" function="internal">
        <lane id=":A_5_0" index="0" speed="10.88" length="6.03" shape="315.87,1410.35,0.32 316.58,1404.37,0.32" />
    </edge>
    <edge id=":A_6" function="internal">
        <lane id=":A_6_0" index="0" speed="3.65" length="1.44" shape="315.87,1410.35,0.32 316.67,1409.15,0.32" />
    </edge>
    <edge id=":A_25" function="internal">
        <lane id=":A_25_0" index="0" speed="10.88" length="21.12" shape="316.58,1404.37,0.32 316.82,1402.30,0.32 319.67,1396.55,0.32 324.42,1393.10,0.32 331.07,1391.95,0.32" />
    </edge>
    <edge id=":A_26" function="internal">
        <lane id=":A_26_0" index="0" speed="3.65" length="3.23" shape="316.67,1409.15,0.32 317.47,1408.75,0.32 318.27,1409.15,0.32 319.07,1410.35,0.32" />
    </edge>
    <edge id=":A_7" function="internal">
        <lane id=":A_7_0" index="0" speed="6.51" length="9.03" shape="331.07,1404.75,0.32 328.62,1405.10,0.32 326.87,1406.15,0.32 325.82,1407.90,0.32 325.47,1410.35,0.32" />
    </edge>
    <edge id=":A_8" function="internal">
        <lane id=":A_8_0" index="0" speed="15.65" length="30.62" shape="331.07,1404.75,0.32 321.99,1404.25,0.32 315.77,1403.15,0.32 309.60,1402.05,0.32 300.67,1401.55,0.32" />
        <lane id=":A_8_1" index="1" speed="15.65" length="30.62" shape="331.07,1401.55,0.32 321.99,1401.05,0.32 315.77,1399.95,0.32 309.60,1398.85,0.32 300.67,1398.35,0.32" />
        <lane id=":A_8_2" index="2" speed="15.65" length="30.62" shape="331.07,1398.35,0.32 321.99,1397.85,0.32 315.77,1396.75,0.32 309.60,1395.65,0.32 300.67,1395.15,0.32" />
    </edge>
    <edge id=":A_11" function="internal">
        <lane id=":A_11_0" index="0" speed="10.88" length="6.09" shape="331.07,1395.15,0.32 325.07,1394.11,0.31" />
    </edge>
    <edge id=":A_12" function="internal">
        <lane id=":A_12_0" index="0" speed="3.65" length="1.44" shape="331.07,1395.15,0.32 329.87,1394.35,0.32" />
    </edge>
    <edge id=":A_27" function="internal">
        <lane id=":A_27_0" index="0" speed="10.88" length="21.05" shape="325.07,1394.11,0.31 324.42,1394.00,0.31 319.67,1390.55,0.30 316.82,1384.80,0.29 315.87,1376.75,0.28" />
    </edge>
    <edge id=":A_28" function="internal">
        <lane id=":A_28_0" index="0" speed="3.65" length="3.23" shape="329.87,1394.35,0.32 329.47,1393.55,0.32 329.87,1392.75,0.32 331.07,1391.95,0.32" />
    </edge>
    <edge id=":A_13" function="internal">
        <lane id=":A_13_0" index="0" speed="7.33" length="11.73" shape="325.47,1376.75,0.28 325.82,1380.60,0.30 326.87,1383.35,0.31 328.62,1385.00,0.31 331.07,1385.55,0.32" />
    </edge>
    <edge id=":A_14" function="internal">
        <lane id=":A_14_0" index="0" speed="15.65" length="33.60" shape="325.47,1376.75,0.28 325.47,1410.35,0.32" />
        <lane id=":A_14_1" index="1" speed="15.65" length="33.60" shape="322.27,1376.75,0.28 322.27,1410.35,0.32" />
        <lane id=":A_14_2" index="2" speed="15.65" length="33.60" shape="319.07,1376.75,0.28 319.07,1410.35,0.32" />
    </edge>
    <edge id=":A_17" function="internal">
        <lane id=":A_17_0" index="0" speed="11.36" length="5.01" shape="319.07,1376.75,0.28 318.37,1381.72,0.29" />
    </edge>
    <edge id=":A_18" function="internal">
        <lane id=":A_18_0" index="0" speed="3.65" length="1.44" shape="319.07,1376.75,0.28 318.27,1377.95,0.28" />
    </edge>
    <edge id=":A_29" function="internal">
        <lane id=":A_29_0" index="0" speed="11.36" length="24.66" shape="318.37,1381.72,0.29 317.92,1384.80,0.29 314.47,1390.55,0.30 308.72,1394.00,0.31 300.67,1395.15,0.32" />
    </edge>
    <edge id=":A_30" function="internal">
        <lane id=":A_30_0" index="0" speed="3.65" length="3.23" shape="318.27,1377.95,0.28 317.47,1378.35,0.28 316.67,1377.95,0.28 315.87,1376.75,0.28" />
    </edge>
    <edge id=":A_19" function="internal">
        <lane id=":A_19_0" index="0" speed="6.51" length="9.03" shape="300.67,1382.35,0.32 303.12,1382.00,0.31 304.87,1380.95,0.30 305.92,1379.20,0.29 306.27,1376.75,0.28" />
    </edge>
    <edge id=":A_20" function="internal">
        <lane id=":A_20_0" index="0" speed="15.65" length="30.62" shape="300.67,1382.35,0.32 309.76,1382.85,0.32 315.98,1383.95,0.32 322.15,1385.05,0.32 331.07,1385.55,0.32" />
        <lane id=":A_20_1" index="1" speed="15.65" length="30.62" shape="300.67,1385.55,0.32 309.76,1386.05,0.32 315.98,1387.15,0.32 322.15,1388.25,0.32 331.07,1388.75,0.32" />
        <lane id=":A_20_2" index="2" speed="15.65" length="30.62" shape="300.67,1388.75,0.32 309.76,1389.25,0.32 315.98,1390.35,0.32 322.15,1391.45,0.32 331.07,1391.95,0.32" />
    </edge>
    <edge id=":A_23" function="internal">
        <lane id=":A_23_0" index="0" speed="11.36" length="7.98" shape="300.67,1391.95,0.32 308.58,1393.08,0.32" />
    </edge>
    <edge id=":A_24" function="internal">
        <lane id=":A_24_0" index="0" speed="3.65" length="1.44" shape="300.67,1391.95,0.32 301.87,1392.75,0.32" />
    </edge>
    <edge id=":A_31" function="internal">
        <lane id=":A_31_0" index="0" speed="11.36" length="21.69" shape="308.58,1393.08,0.32 308.72,1393.10,0.32 314.47,1396.55,0.32 317.92,1402.30,0.32 319.07,1410.35,0.32" />
    </edge>
    <edge id=":A_32" function="internal">
        <lane id=":A_32_0" index="0" speed="3.65" length="3.23" shape="301.87,1392.75,0.32 302.27,1393.55,0.32 301.87,1394.35,0.32 300.67,1395.15,0.32" />
    </edge>
    <edge id=":AA_0" function="internal">
        <lane id=":AA_0_0" index="0" speed="3.65" length="4.67" shape="184.87,1395.15,0.32 183.67,1394.35,0.32 183.27,1393.55,0.32 183.67,1392.75,0.32 184.87,1391.95,0.32" />
    </edge>
    <edge id=":AB_0" function="internal">
        <lane id=":AB_0_0" index="0" speed="3.65" length="4.67" shape="319.07,1526.15,0.32 318.27,1527.35,0.32 317.47,1527.75,0.32 316.67,1527.35,0.32 315.87,1526.15,0.32" />
    </edge>
    <edge id=":AC_0" function="internal">
        <lane id=":AC_0_0" index="0" speed="3.65" length="4.67" shape="450.08,1391.95,0.32 451.28,1392.75,0.32 451.68,1393.55,0.32 451.28,1394.35,0.32 450.08,1395.15,0.32" />
    </edge>
    <edge id=":B_0" function="internal">
        <lane id=":B_0_0" index="0" speed="6.51" length="9.03" shape="1015.87,1268.15,2.36 1015.52,1265.70,2.35 1014.47,1263.95,2.34 1012.72,1262.90,2.33 1010.27,1262.55,2.32" />
    </edge>
    <edge id=":B_1" function="internal">
        <lane id=":B_1_0" index="0" speed="31.29" length="14.40" shape="1024.67,1262.55,2.36 1010.27,1262.55,2.32" />
    </edge>
    <edge id=":B_2" function="internal">
        <lane id=":B_2_0" index="0" speed="7.33" length="11.73" shape="1019.07,1256.95,2.35 1018.52,1259.40,2.35 1016.87,1261.15,2.34 1014.12,1262.20,2.33 1010.27,1262.55,2.32" />
    </edge>
    <edge id=":C_0" function="internal">
        <lane id=":C_0_0" index="0" speed="6.51" length="9.03" shape="312.67,1221.35,0.14 312.32,1218.90,0.15 311.27,1217.15,0.16 309.52,1216.10,0.17 307.07,1215.75,0.18" />
        <lane id=":C_0_1" index="1" speed="7.33" length="11.73" shape="312.67,1221.35,0.14 312.32,1217.50,0.16 311.27,1214.75,0.16 309.52,1213.10,0.17 307.07,1212.55,0.18" />
    </edge>
    <edge id=":C_2" function="internal">
        <lane id=":C_2_0" index="0" speed="15.65" length="20.80" shape="312.67,1221.35,0.14 312.67,1200.55,0.18" />
        <lane id=":C_2_1" index="1" speed="15.65" length="20.80" shape="315.87,1221.35,0.14 315.87,1200.55,0.18" />
    </edge>
    <edge id=":C_4" function="internal">
        <lane id=":C_4_0" index="0" speed="8.83" length="17.50" shape="315.87,1221.35,0.14 316.22,1214.70,0.16 317.27,1209.95,0.17 319.02,1207.10,0.17 321.47,1206.15,0.18" />
        <lane id=":C_4_1" index="1" speed="8.10" length="14.57" shape="315.87,1221.35,0.14 316.22,1216.10,0.16 317.27,1212.35,0.17 319.02,1210.10,0.17 321.47,1209.35,0.18" />
    </edge>
    <edge id=":D_0" function="internal">
        <lane id=":D_0_0" index="0" speed="6.51" length="9.03" shape="169.14,1265.75,-5.61 166.69,1266.10,-5.61 164.94,1267.15,-5.61 163.89,1268.90,-5.61 163.54,1271.35,-5.61" />
        <lane id=":D_0_1" index="1" speed="7.33" length="11.73" shape="169.14,1265.75,-5.61 165.29,1266.10,-5.61 162.54,1267.15,-5.61 160.89,1268.90,-5.61 160.34,1271.35,-5.61" />
    </edge>
    <edge id=":D_2" function="internal">
        <lane id=":D_2_0" index="0" speed="24.59" length="20.80" shape="169.14,1265.75,-5.61 148.34,1265.75,-5.61" />
        <lane id=":D_2_1" index="1" speed="24.59" length="20.80" shape="169.14,1262.55,-5.61 148.34,1262.55,-5.61" />
    </edge>
    <edge id=":D_4" function="internal">
        <lane id=":D_4_0" index="0" speed="8.83" length="17.50" shape="169.14,1262.55,-5.61 162.49,1262.20,-5.61 157.74,1261.15,-5.61 154.89,1259.40,-5.61 153.94,1256.95,-5.61" />
        <lane id=":D_4_1" index="1" speed="8.10" length="14.57" shape="169.14,1262.55,-5.61 163.89,1262.20,-5.61 160.14,1261.15,-5.61 157.89,1259.40,-5.61 157.14,1256.95,-5.61" />
    </edge>
    <edge id=":TL_0" function="internal">
        <lane id=":TL_0_0" index="0" speed="6.51" length="9.03" shape="306.27,1271.35,0.03 305.92,1268.90,0.02 304.87,1267.15,0.01 303.12,1266.10,0.01 300.67,1265.75" />
    </edge>
    <edge id=":TL_1" function="internal">
        <lane id=":TL_1_0" index="0" speed="15.65" length="14.86" shape="309.47,1271.35,0.03 309.97,1267.03,0.02 311.07,1264.15,0.02 312.17,1261.28,0.02 312.67,1256.95,0.01" />
        <lane id=":TL_1_1" index="1" speed="15.65" length="14.86" shape="312.67,1271.35,0.03 313.17,1267.03,0.02 314.27,1264.15,0.02 315.37,1261.28,0.02 315.87,1256.95,0.01" />
    </edge>
    <edge id=":TL_3" function="internal">
        <lane id=":TL_3_0" index="0" speed="3.65" length="1.44" shape="315.87,1271.35,0.03 316.67,1270.15,0.03" />
    </edge>
    <edge id=":TL_9" function="internal">
        <lane id=":TL_9_0" index="0" speed="3.65" length="3.23" shape="316.67,1270.15,0.03 317.47,1269.75,0.03 318.27,1270.15,0.03 319.07,1271.35,0.03" />
    </edge>
    <edge id=":TL_4" function="internal">
        <lane id=":TL_4_0" index="0" speed="7.33" length="11.73" shape="331.07,1262.55,0.05 328.62,1263.10,0.04 326.87,1264.75,0.04 325.82,1267.50,0.03 325.47,1271.35,0.03" />
        <lane id=":TL_4_1" index="1" speed="8.00" length="14.19" shape="331.07,1262.55,0.05 327.22,1263.10,0.04 324.47,1264.75,0.04 322.82,1267.50,0.03 322.27,1271.35,0.03" />
        <lane id=":TL_4_2" index="2" speed="8.67" length="16.85" shape="331.07,1262.55,0.05 325.82,1263.10,0.04 322.07,1264.75,0.03 319.82,1267.50,0.03 319.07,1271.35,0.03" />
    </edge>
    <edge id=":TL_7" function="internal">
        <lane id=":TL_7_0" index="0" speed="27.94" length="30.40" shape="331.07,1262.55,0.05 300.67,1262.55" />
    </edge>
    <edge id=":TL_8" function="internal">
        <lane id=":TL_8_0" index="0" speed="8.83" length="17.50" shape="331.07,1262.55,0.05 324.42,1262.20,0.03 319.67,1261.15,0.03 316.82,1259.40,0.02 315.87,1256.95,0.01" />
    </edge>

    <edge id="A2AA" from="A" to="AA" priority="-1">
        <lane id="A2AA_0" index="0" speed="15.65" length="115.80" shape="300.67,1401.55,0.32 184.87,1401.55,0.32" />
        <lane id="A2AA_1" index="1" speed="15.65" length="115.80" shape="300.67,1398.35,0.32 184.87,1398.35,0.32" />
        <lane id="A2AA_2" index="2" speed="15.65" length="115.80" shape="300.67,1395.15,0.32 184.87,1395.15,0.32" />
    </edge>
    <edge id="A2AB" from="A" to="AB" priority="-1">
        <lane id="A2AB_0" index="0" speed="15.65" length="115.80" shape="325.47,1410.35,0.32 325.47,1526.15,0.32" />
        <lane id="A2AB_1" index="1" speed="15.65" length="115.80" shape="322.27,1410.35,0.32 322.27,1526.15,0.32" />
        <lane id="A2AB_2" index="2" speed="15.65" length="115.80" shape="319.07,1410.35,0.32 319.07,1526.15,0.32" />
    </edge>
    <edge id="A2AC" from="A" to="AC" priority="-1">
        <lane id="A2AC_0" index="0" speed="15.65" length="119.00" shape="331.07,1385.55,0.32 450.08,1385.55,0.32" />
        <lane id="A2AC_1" index="1" speed="15.65" length="119.00" shape="331.07,1388.75,0.32 450.08,1388.75,0.32" />
        <lane id="A2AC_2" index="2" speed="15.65" length="119.00" shape="331.07,1391.95,0.32 450.08,1391.95,0.32" />
    </edge>
    <edge id="A2TL" from="A" to="TL" priority="-1">
        <lane id="A2TL_0" index="0" speed="15.65" length="105.40" shape="306.27,1376.75,0.28 306.27,1271.35,0.03" />
        <lane id="A2TL_1" index="1" speed="15.65" length="105.40" shape="309.47,1376.75,0.28 309.47,1271.35,0.03" />
        <lane id="A2TL_2" index="2" speed="15.65" length="105.40" shape="312.67,1376.75,0.28 312.67,1271.35,0.03" />
        <lane id="A2TL_3" index="3" speed="15.65" length="105.40" shape="315.87,1376.75,0.28 315.87,1271.35,0.03" />
    </edge>
    <edge id="AA2A" from="AA" to="A" priority="-1">
        <lane id="AA2A_0" index="0" speed="15.65" length="115.80" shape="184.87,1382.35,0.32 300.67,1382.35,0.32" />
        <lane id="AA2A_1" index="1" speed="15.65" length="115.80" shape="184.87,1385.55,0.32 300.67,1385.55,0.32" />
        <lane id="AA2A_2" index="2" speed="15.65" length="115.80" shape="184.87,1388.75,0.32 300.67,1388.75,0.32" />
        <lane id="AA2A_3" index="3" speed="15.65" length="115.80" shape="184.87,1391.95,0.32 300.67,1391.95,0.32" />
    </edge>
    <edge id="AB2A" from="AB" to="A" priority="-1">
        <lane id="AB2A_0" index="0" speed="15.65" length="115.80" shape="306.27,1526.15,0.32 306.27,1410.35,0.32" />
        <lane id="AB2A_1" index="1" speed="15.65" length="115.80" shape="309.47,1526.15,0.32 309.47,1410.35,0.32" />
        <lane id="AB2A_2" index="2" speed="15.65" length="115.80" shape="312.67,1526.15,0.32 312.67,1410.35,0.32" />
        <lane id="AB2A_3" index="3" speed="15.65" length="115.80" shape="315.87,1526.15,0.32 315.87,1410.35,0.32" />
    </edge>
    <edge id="AC2A" from="AC" to="A" priority="-1">
        <lane id="AC2A_0" index="0" speed="15.65" length="119.00" shape="450.08,1404.75,0.32 331.07,1404.75,0.32" />
        <lane id="AC2A_1" index="1" speed="15.65" length="119.00" shape="450.08,1401.55,0.32 331.07,1401.55,0.32" />
        <lane id="AC2A_2" index="2" speed="15.65" length="119.00" shape="450.08,1398.35,0.32 331.07,1398.35,0.32" />
        <lane id="AC2A_3" index="3" speed="15.65" length="119.00" shape="450.08,1395.15,0.32 331.07,1395.15,0.32" />
    </edge>
    <edge id="B2TL" from="B" to="TL" priority="-1">
        <lane id="B2TL_0" index="0" speed="31.29" length="679.20" shape="1010.27,1262.55,2.32 331.07,1262.55,0.05" />
    </edge>
    <edge id="BA2B" from="BA" to="B" priority="-1">
        <lane id="BA2B_0" index="0" speed="31.29" length="1253.75" shape="1015.87,2521.90,4.23 1015.87,1268.15,2.36" />
    </edge>
    <edge id="BB2B" from="BB" to="B" priority="-1">
        <lane id="BB2B_0" index="0" speed="31.29" length="1253.75" shape="2278.43,1262.55,4.23 1024.67,1262.55,2.36" />
    </edge>
    <edge id="BC2B" from="BC" to="B" priority="-1">
        <lane id="BC2B_0" index="0" speed="31.29" length="1256.95" shape="1019.07,0.00,4.23 1019.07,1256.95,2.35" />
    </edge>
    <edge id="C2CA" from="C" to="CA" priority="-1">
        <lane id="C2CA_0" index="0" speed="15.65" length="38.45" shape="321.47,1206.15,0.18 359.92,1206.15,0.16" />
        <lane id="C2CA_1" index="1" speed="15.65" length="38.45" shape="321.47,1209.35,0.18 359.92,1209.35,0.16" />
    </edge>
    <edge id="C2CB" from="C" to="CB" priority="-1">
        <lane id="C2CB_0" index="0" speed="15.65" length="32.05" shape="312.67,1200.55,0.18 312.67,1168.50,0.16" />
        <lane id="C2CB_1" index="1" speed="15.65" length="32.05" shape="315.87,1200.55,0.18 315.87,1168.50,0.16" />
    </edge>
    <edge id="C2CC" from="C" to="CC" priority="-1">
        <lane id="C2CC_0" index="0" speed="15.65" length="32.05" shape="307.07,1215.75,0.18 275.03,1215.75,0.16" />
        <lane id="C2CC_1" index="1" speed="15.65" length="32.05" shape="307.07,1212.55,0.18 275.03,1212.55,0.16" />
    </edge>
    <edge id="D2DA" from="D" to="DA" priority="-1">
        <lane id="D2DA_0" index="0" speed="24.59" length="154.74" shape="153.94,1256.95,-5.61 153.94,1102.21,-5.61" />
        <lane id="D2DA_1" index="1" speed="24.59" length="154.74" shape="157.14,1256.95,-5.61 157.14,1102.21,-5.61" />
    </edge>
    <edge id="D2DB" from="D" to="DB" priority="-1">
        <lane id="D2DB_0" index="0" speed="24.59" length="148.34" shape="148.34,1265.75,-5.61 0.00,1265.75,-5.61" />
        <lane id="D2DB_1" index="1" speed="24.59" length="148.34" shape="148.34,1262.55,-5.61 0.00,1262.55,-5.61" />
    </edge>
    <edge id="D2DC" from="D" to="DC" priority="-1">
        <lane id="D2DC_0" index="0" speed="24.59" length="148.34" shape="163.54,1271.35,-5.61 163.54,1419.69,-5.61" />
        <lane id="D2DC_1" index="1" speed="24.59" length="148.34" shape="160.34,1271.35,-5.61 160.34,1419.69,-5.61" />
    </edge>
    <edge id="TL2A" from="TL" to="A" priority="-1">
        <lane id="TL2A_0" index="0" speed="15.65" length="105.40" shape="325.47,1271.35,0.03 325.47,1376.75,0.28" />
        <lane id="TL2A_1" index="1" speed="15.65" length="105.40" shape="322.27,1271.35,0.03 322.27,1376.75,0.28" />
        <lane id="TL2A_2" index="2" speed="15.65" length="105.40" shape="319.07,1271.35,0.03 319.07,1376.75,0.28" />
    </edge>
    <edge id="TL2C" from="TL" to="C" priority="-1">
        <lane id="TL2C_0" index="0" speed="15.65" length="35.60" shape="312.67,1256.95,0.01 312.67,1221.35,0.14" />
        <lane id="TL2C_1" index="1" speed="15.65" length="35.60" shape="315.87,1256.95,0.01 315.87,1221.35,0.14" />
    </edge>
    <edge id="TL2D" from="TL" to="D" priority="-1">
        <lane id="TL2D_0" index="0" speed="24.59" length="131.66" shape="300.67,1265.75 169.14,1265.75,-5.61" />
        <lane id="TL2D_1" index="1" speed="24.59" length="131.66" shape="300.67,1262.55 169.14,1262.55,-5.61" />
    </edge>

    <tlLogic id="A" type="static" programID="0" offset="0">
        <phase duration="38" state="rrrrrrrGGGGrrrrrrrrGGGGrr" />
        <phase duration="3" state="rrrrrrryyyyrrrrrrrryyyyrr" />
        <phase duration="6" state="rrrrrrrrrrrGGrrrrrrrrrrGG" />
        <phase duration="3" state="rrrrrrrrrrryyrrrrrrrrrryy" />
        <phase duration="37" state="GGGGGggrrrrrrGGGGggrrrrrr" />
        <phase duration="3" state="yyyyyyyrrrrrryyyyyyrrrrrr" />
    </tlLogic>
    <tlLogic id="AA" type="static" programID="0" offset="0">
        <phase duration="82" state="G" />
        <phase duration="3" state="y" />
        <phase duration="5" state="r" />
    </tlLogic>
    <tlLogic id="AB" type="static" programID="0" offset="0">
        <phase duration="82" state="G" />
        <phase duration="3" state="y" />
        <phase duration="5" state="r" />
    </tlLogic>
    <tlLogic id="AC" type="static" programID="0" offset="0">
        <phase duration="82" state="G" />
        <phase duration="3" state="y" />
        <phase duration="5" state="r" />
    </tlLogic>
    <tlLogic id="B" type="static" programID="0" offset="0">
        <phase duration="23" state="rrG" />
        <phase duration="7" state="rry" />
        <phase duration="23" state="Grr" />
        <phase duration="7" state="yrr" />
        <phase duration="23" state="rGr" />
        <phase duration="7" state="ryr" />
    </tlLogic>
    <tlLogic id="C" type="static" programID="0" offset="0">
        <phase duration="82" state="GGGGGG" />
        <phase duration="3" state="yyyyyy" />
        <phase duration="5" state="rrrrrr" />
    </tlLogic>
    <tlLogic id="D" type="static" programID="0" offset="0">
        <phase duration="80" state="GGGGGG" />
        <phase duration="5" state="yyyyyy" />
        <phase duration="5" state="rrrrrr" />
    </tlLogic>
    <tlLogic id="TL" type="static" programID="0" offset="0">
        <phase duration="50" state="GGGgGGGrr" />
        <phase duration="7" state="yyyyyyyrr" />
        <phase duration="15" state="GrrrGGGGG" />
        <phase duration="7" state="yrrryyyyy" />
    </tlLogic>

    <junction id="A" type="traffic_light" x="317.47" y="1393.55" z="0.32" incLanes="AB2A_0 AB2A_1 AB2A_2 AB2A_3 AC2A_0 AC2A_1 AC2A_2 AC2A_3 TL2A_0 TL2A_1 TL2A_2 AA2A_0 AA2A_1 AA2A_2 AA2A_3" intLanes=":A_0_0 :A_1_0 :A_1_1 :A_1_2 :A_1_3 :A_25_0 :A_26_0 :A_7_0 :A_8_0 :A_8_1 :A_8_2 :A_27_0 :A_28_0 :A_13_0 :A_14_0 :A_14_1 :A_14_2 :A_29_0 :A_30_0 :A_19_0 :A_20_0 :A_20_1 :A_20_2 :A_31_0 :A_32_0" shape="304.67,1410.35,0.32 327.07,1410.35,0.32 327.52,1408.13,0.32 328.07,1407.35,0.32 328.85,1406.80,0.32 329.85,1406.46,0.32 331.07,1406.35,0.32 331.07,1383.95,0.32 328.85,1383.15,0.32 328.07,1382.15,0.32 327.52,1380.75,0.32 327.19,1378.95,0.32 327.07,1376.75,0.32 304.67,1376.75,0.32 304.23,1378.97,0.32 303.67,1379.75,0.32 302.90,1380.31,0.32 301.90,1380.64,0.32 300.67,1380.75,0.32 300.67,1403.15,0.32 302.90,1403.95,0.32 303.67,1404.95,0.32 304.23,1406.35,0.32 304.56,1408.15,0.32">
        <request index="0" response="0000000000000011100000000" foes="0000000000000011100000000" cont="0" />
        <request index="1" response="0111110000000111100000000" foes="0111111100000111100000000" cont="0" />
        <request index="2" response="0111110000000111100000000" foes="0111111100000111100000000" cont="0" />
        <request index="3" response="0111110000000111100000000" foes="0111111100000111100000000" cont="0" />
        <request index="4" response="0111110000000111100000000" foes="0111111100000111100000000" cont="0" />
        <request index="5" response="0111100011100111100000000" foes="0111100011101111100000000" cont="1" />
        <request index="6" response="0100000011100000000000000" foes="0100000011100000000000000" cont="1" />
        <request index="7" response="0000000000000000000000000" foes="0000000011100000000000000" cont="0" />
        <request index="8" response="0000000100000000000100000" foes="1100000111100000000111111" cont="0" />
        <request index="9" response="0000000100000000000100000" foes="1100000111100000000111111" cont="0" />
        <request index="10" response="0000000100000000000100000" foes="1100000111100000000111111" cont="0" />
        <request index="11" response="0011100100000000000100000" foes="0011101111100000000111110" cont="1" />
        <request index="12" response="0011100000000000000100000" foes="0011100000000000000100000" cont="1" />
        <request index="13" response="0011100000000000000000000" foes="0011100000000000000000000" cont="0" />
        <request index="14" response="0111100000000111110000000" foes="0111100000000111111100000" cont="0" />
        <request index="15" response="0111100000000111110000000" foes="0111100000000111111100000" cont="0" />
        <request index="16" response="0111100000000111110000000" foes="0111100000000111111100000" cont="0" />
        <request index="17" response="0111100000000111100011110" foes="1111100000000111100011110" cont="1" />
        <request index="18" response="0000000000000100000011110" foes="0000000000000100000011110" cont="1" />
        <request index="19" response="0000000000000000000000000" foes="0000000000000000000011110" cont="0" />
        <request index="20" response="0000000100000000000100000" foes="0000000111111100000111110" cont="0" />
        <request index="21" response="0000000100000000000100000" foes="0000000111111100000111110" cont="0" />
        <request index="22" response="0000000100000000000100000" foes="0000000111111100000111110" cont="0" />
        <request index="23" response="0000000100000011100100000" foes="0000000111100011101111110" cont="1" />
        <request index="24" response="0000000100000011100000000" foes="0000000100000011100000000" cont="1" />
    </junction>
    <junction id="AA" type="traffic_light" x="184.87" y="1393.55" z="0.32" incLanes="A2AA_0 A2AA_1 A2AA_2" intLanes=":AA_0_0" shape="184.87,1393.55,0.32 184.87,1403.15,0.32 184.87,1393.55,0.32">
        <request index="0" response="0" foes="0" cont="0" />
    </junction>
    <junction id="AB" type="traffic_light" x="317.47" y="1526.15" z="0.32" incLanes="A2AB_0 A2AB_1 A2AB_2" intLanes=":AB_0_0" shape="317.47,1526.15,0.32 327.07,1526.15,0.32 317.47,1526.15,0.32">
        <request index="0" response="0" foes="0" cont="0" />
    </junction>
    <junction id="AC" type="traffic_light" x="450.08" y="1393.55" z="0.32" incLanes="A2AC_0 A2AC_1 A2AC_2" intLanes=":AC_0_0" shape="450.08,1393.55,0.32 450.08,1383.95,0.32 450.08,1393.55,0.32">
        <request index="0" response="0" foes="0" cont="0" />
    </junction>
    <junction id="B" type="traffic_light" x="1017.47" y="1260.95" z="2.35" incLanes="BA2B_0 BB2B_0 BC2B_0" intLanes=":B_0_0 :B_1_0 :B_2_0" shape="1014.27,1268.15,2.35 1017.47,1268.15,2.35 1018.27,1265.93,2.35 1019.27,1265.15,2.35 1020.67,1264.60,2.35 1022.47,1264.26,2.35 1024.67,1264.15,2.35 1024.67,1260.95,2.35 1022.45,1260.51,2.35 1021.67,1259.95,2.35 1021.12,1259.17,2.35 1020.79,1258.17,2.35 1020.67,1256.95,2.35 1017.47,1256.95,2.35 1016.67,1259.17,2.35 1015.67,1259.95,2.35 1014.27,1260.51,2.35 1012.47,1260.84,2.35 1010.27,1260.95,2.35 1010.27,1264.15,2.35 1012.50,1264.60,2.35 1013.27,1265.15,2.35 1013.83,1265.93,2.35 1014.16,1266.93,2.35">
        <request index="0" response="000" foes="110" cont="0" />
        <request index="1" response="101" foes="101" cont="0" />
        <request index="2" response="001" foes="011" cont="0" />
    </junction>
    <junction id="BA" type="dead_end" x="1017.47" y="2521.90" z="4.23" incLanes="" intLanes="" shape="1017.47,2521.90,4.23 1014.27,2521.90,4.23" />
    <junction id="BB" type="dead_end" x="2278.43" y="1260.95" z="4.23" incLanes="" intLanes="" shape="2278.43,1260.95,4.23 2278.43,1264.15,4.23" />
    <junction id="BC" type="dead_end" x="1017.47" y="0.00" z="4.23" incLanes="" intLanes="" shape="1017.47,0.00,4.23 1020.67,0.00,4.23" />
    <junction id="C" type="traffic_light" x="317.47" y="1210.95" z="0.18" incLanes="TL2C_0 TL2C_1" intLanes=":C_0_0 :C_0_1 :C_2_0 :C_2_1 :C_4_0 :C_4_1" shape="311.07,1221.35,0.18 317.47,1221.35,0.18 317.59,1218.17,0.18 317.92,1215.57,0.18 318.47,1213.55,0.18 319.25,1212.11,0.18 320.25,1211.24,0.18 321.47,1210.95,0.18 321.47,1204.55,0.18 319.25,1204.11,0.18 318.47,1203.55,0.18 317.92,1202.77,0.18 317.59,1201.77,0.18 317.47,1200.55,0.18 311.07,1200.55,0.18 310.96,1203.73,0.18 310.63,1206.33,0.18 310.07,1208.35,0.18 309.30,1209.80,0.18 308.30,1210.66,0.18 307.07,1210.95,0.18 307.07,1217.35,0.18 309.30,1217.80,0.18 310.07,1218.35,0.18 310.63,1219.13,0.18 310.96,1220.13,0.18">
        <request index="0" response="000000" foes="000000" cont="0" />
        <request index="1" response="000000" foes="000000" cont="0" />
        <request index="2" response="000000" foes="000000" cont="0" />
        <request index="3" response="000000" foes="000000" cont="0" />
        <request index="4" response="000000" foes="000000" cont="0" />
        <request index="5" response="000000" foes="000000" cont="0" />
    </junction>
    <junction id="CA" type="dead_end" x="359.92" y="1210.95" z="0.16" incLanes="C2CA_0 C2CA_1" intLanes="" shape="359.92,1204.55,0.16 359.92,1210.95,0.16" />
    <junction id="CB" type="dead_end" x="317.47" y="1168.50" z="0.16" incLanes="C2CB_0 C2CB_1" intLanes="" shape="311.07,1168.50,0.16 317.47,1168.50,0.16" />
    <junction id="CC" type="dead_end" x="275.03" y="1210.95" z="0.16" incLanes="C2CC_0 C2CC_1" intLanes="" shape="275.03,1217.35,0.16 275.03,1210.95,0.16" />
    <junction id="D" type="traffic_light" x="158.74" y="1260.95" z="-5.61" incLanes="TL2D_0 TL2D_1" intLanes=":D_0_0 :D_0_1 :D_2_0 :D_2_1 :D_4_0 :D_4_1" shape="158.74,1271.35,-5.61 165.14,1271.35,-5.61 165.58,1269.13,-5.61 166.14,1268.35,-5.61 166.91,1267.80,-5.61 167.91,1267.46,-5.61 169.14,1267.35,-5.61 169.14,1260.95,-5.61 165.96,1260.84,-5.61 163.36,1260.51,-5.61 161.34,1259.95,-5.61 159.89,1259.17,-5.61 159.03,1258.17,-5.61 158.74,1256.95,-5.61 152.34,1256.95,-5.61 151.89,1259.17,-5.61 151.34,1259.95,-5.61 150.56,1260.51,-5.61 149.56,1260.84,-5.61 148.34,1260.95,-5.61 148.34,1267.35,-5.61 151.51,1267.46,-5.61 154.11,1267.80,-5.61 156.14,1268.35,-5.61 157.58,1269.13,-5.61 158.45,1270.13,-5.61">
        <request index="0" response="000000" foes="000000" cont="0" />
        <request index="1" response="000000" foes="000000" cont="0" />
        <request index="2" response="000000" foes="000000" cont="0" />
        <request index="3" response="000000" foes="000000" cont="0" />
        <request index="4" response="000000" foes="000000" cont="0" />
        <request index="5" response="000000" foes="000000" cont="0" />
    </junction>
    <junction id="DA" type="dead_end" x="158.74" y="1102.21" z="-5.61" incLanes="D2DA_0 D2DA_1" intLanes="" shape="152.34,1102.21,-5.61 158.74,1102.21,-5.61" />
    <junction id="DB" type="dead_end" x="0.00" y="1260.95" z="-5.61" incLanes="D2DB_0 D2DB_1" intLanes="" shape="0.00,1267.35,-5.61 0.00,1260.95,-5.61" />
    <junction id="DC" type="dead_end" x="158.74" y="1419.69" z="-5.61" incLanes="D2DC_0 D2DC_1" intLanes="" shape="165.14,1419.69,-5.61 158.74,1419.69,-5.61" />