<net xmlns:xsi="http://www.w3.org/2001/XMLSchema-instance" version="1.9" junctionCornerDetail="5" limitTurnSpeed="5.50" xsi:noNamespaceSchemaLocation="http://sumo.dlr.de/xsd/net_file.xsd">

    <location netOffset="350.03,636.00" convBoundary="0.00,0.00,946.19,1269.43" origBoundary="-350.03,-636.00,596.15,633.43" projParameter="!" />

    <edge id=":A_0" function="internal">
        <lane id=":A_0_0" index="0" speed="6.51" length="9.03" shape="345.23,963.11,13.41 344.88,960.66,13.41 343.83,958.91,13.41 342.08,957.86,13.41 339.63,957.51,13.41" />
    </edge>
    <edge id=":A_1" function="internal">
        <lane id=":A_1_0" index="0" speed="13.41" length="20.80" shape="345.23,963.11,13.41 345.23,942.31,13.41" />
        <lane id=":A_1_1" index="1" speed="13.41" length="20.80" shape="348.43,963.11,13.41 348.43,942.31,13.41" />
    </edge>
    <edge id=":A_3" function="internal">
        <lane id=":A_3_0" index="0" speed="9.26" length="5.01" shape="348.43,963.11,13.41 349.14,958.15,13.41" />
    </edge>
    <edge id=":A_4" function="internal">
        <lane id=":A_4_0" index="0" speed="3.65" length="1.44" shape="348.43,963.11,13.41 349.23,961.91,13.41" />
    </edge>
    <edge id=":A_20" function="internal">
        <lane id=":A_20_0" index="0" speed="9.26" length="14.34" shape="349.14,958.15,13.41 349.18,957.86,13.41 351.43,954.11,13.41 355.18,951.86,13.41 360.43,951.11,13.41" />
    </edge>
    <edge id=":A_21" function="internal">
        <lane id=":A_21_0" index="0" speed="3.65" length="3.23" shape="349.23,961.91,13.41 350.03,961.51,13.41 350.83,961.91,13.41 351.63,963.11,13.41" />
    </edge>
    <edge id=":A_5" function="internal">
        <lane id=":A_5_0" index="0" speed="6.51" length="9.03" shape="360.43,957.51,13.41 357.98,957.86,13.41 356.23,958.91,13.41 355.18,960.66,13.41 354.83,963.11,13.41" />
    </edge>
    <edge id=":A_6" function="internal">
        <lane id=":A_6_0" index="0" speed="13.41" length="20.80" shape="360.43,957.51,13.41 339.63,957.51,13.41" />
        <lane id=":A_6_1" index="1" speed="13.41" length="20.80" shape="360.43,954.31,13.41 339.63,954.31,13.41" />
    </edge>
    <edge id=":A_8" function="internal">
        <lane id=":A_8_0" index="0" speed="9.26" length="5.01" shape="360.43,954.31,13.41 355.47,953.60,13.41" />
    </edge>
    <edge id=":A_9" function="internal">
        <lane id=":A_9_0" index="0" speed="3.65" length="1.44" shape="360.43,954.31,13.41 359.23,953.51,13.41" />
    </edge>
    <edge id=":A_22" function="internal">
        <lane id=":A_22_0" index="0" speed="9.26" length="14.34" shape="355.47,953.60,13.41 355.18,953.56,13.41 351.43,951.31,13.41 349.18,947.56,13.41 348.43,942.31,13.41" />
    </edge>
    <edge id=":A_23" function="internal">
        <lane id=":A_23_0" index="0" speed="3.65" length="3.23" shape="359.23,953.51,13.41 358.83,952.71,13.41 359.23,951.91,13.41 360.43,951.11,13.41" />
    </edge>
    <edge id=":A_10" function="internal">
        <lane id=":A_10_0" index="0" speed="6.51" length="9.03" shape="354.83,942.31,13.41 355.18,944.76,13.41 356.23,946.51,13.41 357.98,947.56,13.41 360.43,947.91,13.41" />
    </edge>
    <edge id=":A_11" function="internal">
        <lane id=":A_11_0" index="0" speed="13.41" length="20.80" shape="354.83,942.31,13.41 354.83,963.11,13.41" />
        <lane id=":A_11_1" index="1" speed="13.41" length="20.80" shape="351.63,942.31,13.41 351.63,963.11,13.41" />
    </edge>
    <edge id=":A_13" function="internal">
        <lane id=":A_13_0" index="0" speed="9.26" length="5.01" shape="351.63,942.31,13.41 350.92,947.27,13.41" />
    </edge>
    <edge id=":A_14" function="internal">
        <lane id=":A_14_0" index="0" speed="3.65" length="1.44" shape="351.63,942.31,13.41 350.83,943.51,13.41" />
    </edge>
    <edge id=":A_24" function="internal">
        <lane id=":A_24_0" index="0" speed="9.26" length="14.34" shape="350.92,947.27,13.41 350.88,947.56,13.41 348.63,951.31,13.41 344.88,953.56,13.41 339.63,954.31,13.41" />
    </edge>
    <edge id=":A_25" function="internal">
        <lane id=":A_25_0" index="0" speed="3.65" length="3.23" shape="350.83,943.51,13.41 350.03,943.91,13.41 349.23,943.51,13.41 348.43,942.31,13.41" />
    </edge>
    <edge id=":A_15" function="internal">
        <lane id=":A_15_0" index="0" speed="6.51" length="9.03" shape="339.63,947.91,13.41 342.08,947.56,13.41 343.83,946.51,13.41 344.88,944.76,13.41 345.23,942.31,13.41" />
    </edge>
    <edge id=":A_16" function="internal">
        <lane id=":A_16_0" index="0" speed="13.41" length="20.80" shape="339.63,947.91,13.41 360.43,947.91,13.41" />
        <lane id=":A_16_1" index="1" speed="13.41" length="20.80" shape="339.63,951.11,13.41 360.43,951.11,13.41" />
    </edge>
    <edge id=":A_18" function="internal">
        <lane id=":A_18_0" index="0" speed="9.26" length="5.01" shape="339.63,951.11,13.41 344.60,951.82,13.41" />
    </edge>
    <edge id=":A_19" function="internal">
        <lane id=":A_19_0" index="0" speed="3.65" length="1.44" shape="339.63,951.11,13.41 340.83,951.91,13.41" />
    </edge>
    <edge id=":A_26" function="internal">
        <lane id=":A_26_0" index="0" speed="9.26" length="14.34" shape="344.60,951.82,13.41 344.88,951.86,13.41 348.63,954.11,13.41 350.88,957.86,13.41 351.63,963.11,13.41" />
    </edge>
    <edge id=":A_27" function="internal">
        <lane id=":A_27_0" index="0" speed="3.65" length="3.23" shape="340.83,951.91,13.41 341.23,952.71,13.41 340.83,953.51,13.41 339.63,954.31,13.41" />
    </edge>
    <edge id=":AA_0" function="internal">
        <lane id=":AA_0_0" index="0" speed="3.65" length="4.67" shape="33.32,954.31,13.41 32.12,953.51,13.41 31.72,952.71,13.41 32.12,951.91,13.41 33.32,951.11,13.41" />
    </edge>
    <edge id=":AB_0" function="internal">
        <lane id=":AB_0_0" index="0" speed="3.65" length="4.67" shape="351.63,1269.43,13.41 350.83,1270.63,13.41 350.03,1271.03,13.41 349.23,1270.63,13.41 348.43,1269.43,13.41" />
    </edge>
    <edge id=":AC_0" function="internal">
        <lane id=":AC_0_0" index="0" speed="3.65" length="4.67" shape="666.75,951.11,13.41 667.95,951.91,13.41 668.35,952.71,13.41 667.95,953.51,13.41 666.75,954.31,13.41" />
    </edge>
    <edge id=":B_0" function="internal">
        <lane id=":B_0_0" index="0" speed="6.51" length="9.03" shape="643.31,646.40,16.07 642.96,643.95,16.07 641.91,642.20,16.07 640.16,641.15,16.07 637.71,640.80,16.07" />
    </edge>
    <edge id=":B_1" function="internal">
        <lane id=":B_1_0" index="0" speed="13.41" length="20.80" shape="643.31,646.40,16.07 643.31,625.60,16.07" />
        <lane id=":B_1_1" index="1" speed="13.41" length="20.80" shape="646.51,646.40,16.07 646.51,625.60,16.07" />
    </edge>
    <edge id=":B_3" function="internal">
        <lane id=":B_3_0" index="0" speed="9.26" length="5.01" shape="646.51,646.40,16.07 647.22,641.43,16.07" />
    </edge>
    <edge id=":B_4" function="internal">
        <lane id=":B_4_0" index="0" speed="3.65" length="1.44" shape="646.51,646.40,16.07 647.31,645.20,16.07" />
    </edge>
    <edge id=":B_20" function="internal">
        <lane id=":B_20_0" index="0" speed="9.26" length="14.34" shape="647.22,641.43,16.07 647.26,641.15,16.07 649.51,637.40,16.07 653.26,635.15,16.07 658.51,634.40,16.07" />
    </edge>
    <edge id=":B_21" function="internal">
        <lane id=":B_21_0" index="0" speed="3.65" length="3.23" shape="647.31,645.20,16.07 648.11,644.80,16.07 648.91,645.20,16.07 649.71,646.40,16.07" />
    </edge>
    <edge id=":B_5" function="internal">
        <lane id=":B_5_0" index="0" speed="6.51" length="9.03" shape="658.51,640.80,16.07 656.06,641.15,16.07 654.31,642.20,16.07 653.26,643.95,16.07 652.91,646.40,16.07" />
    </edge>
    <edge id=":B_6" function="internal">
        <lane id=":B_6_0" index="0" speed="13.41" length="20.80" shape="658.51,640.80,16.07 637.71,640.80,16.07" />
        <lane id=":B_6_1" index="1" speed="13.41" length="20.80" shape="658.51,637.60,16.07 637.71,637.60,16.07" />
    </edge>
    <edge id=":B_8" function="internal">
        <lane id=":B_8_0" index="0" speed="9.26" length="5.01" shape="658.51,637.60,16.07 653.55,636.89,16.07" />
    </edge>
    <edge id=":B_9" function="internal">
        <lane id=":B_9_0" index="0" speed="3.65" length="1.44" shape="658.51,637.60,16.07 657.31,636.80,16.07" />
    </edge>
    <edge id=":B_22" function="internal">
        <lane id=":B_22_0" index="0" speed="9.26" length="14.34" shape="653.55,636.89,16.07 653.26,636.85,16.07 649.51,634.60,16.07 647.26,630.85,16.07 646.51,625.60,16.07" />
    </edge>
    <edge id=":B_23" function="internal">
        <lane id=":B_23_0" index="0" speed="3.65" length="3.23" shape="657.31,636.80,16.07 656.91,636.00,16.07 657.31,635.20,16.07 658.51,634.40,16.07" />
    </edge>
    <edge id=":B_10" function="internal">
        <lane id=":B_10_0" index="0" speed="6.51" length="9.03" shape="652.91,625.60,16.07 653.26,628.05,16.07 654.31,629.80,16.07 656.06,630.85,16.07 658.51,631.20,16.07" />
    </edge>
    <edge id=":B_11" function="internal">
        <lane id=":B_11_0" index="0" speed="13.41" length="20.80" shape="652.91,625.60,16.07 652.91,646.40,16.07" />
        <lane id=":B_11_1" index="1" speed="13.41" length="20.80" shape="649.71,625.60,16.07 649.71,646.40,16.07" />
    </edge>
    <edge id=":B_13" function="internal">
        <lane id=":B_13_0" index="0" speed="9.26" length="5.01" shape="649.71,625.60,16.07 649.00,630.56,16.07" />
    </edge>
    <edge id=":B_14" function="internal">
        <lane id=":B_14_0" index="0" speed="3.65" length="1.44" shape="649.71,625.60,16.07 648.91,626.80,16.07" />
    </edge>
    <edge id=":B_24" function="internal">
        <lane id=":B_24_0" index="0" speed="9.26" length="14.34" shape="649.00,630.56,16.07 648.96,630.85,16.07 646.71,634.60,16.07 642.96,636.85,16.07 637.71,637.60,16.07" />
    </edge>
    <edge id=":B_25" function="internal">
        <lane id=":B_25_0" index="0" speed="3.65" length="3.23" shape="648.91,626.80,16.07 648.11,627.20,16.07 647.31,626.80,16.07 646.51,625.60,16.07" />
    </edge>
    <edge id=":B_15" function="internal">
        <lane id=":B_15_0" index="0" speed="6.51" length="9.03" shape="637.71,631.20,16.07 640.16,630.85,16.07 641.91,629.80,16.07 642.96,628.05,16.07 643.31,625.60,16.07" />
    </edge>
    <edge id=":B_16" function="internal">
        <lane id=":B_16_0" index="0" speed="13.41" length="20.80" shape="637.71,631.20,16.07 658.51,631.20,16.07" />
        <lane id=":B_16_1" index="1" speed="13.41" length="20.80" shape="637.71,634.40,16.07 658.51,634.40,16.07" />
    </edge>
    <edge id=":B_18" function="internal">
        <lane id=":B_18_0" index="0" speed="9.26" length="5.01" shape="637.71,634.40,16.07 642.67,635.11,16.07" />
    </edge>
    <edge id=":B_19" function="internal">
        <lane id=":B_19_0" index="0" speed="3.65" length="1.44" shape="637.71,634.40,16.07 638.91,635.20,16.07" />
    </edge>
    <edge id=":B_26" function="internal">
        <lane id=":B_26_0" index="0" speed="9.26" length="14.34" shape="642.67,635.11,16.07 642.96,635.15,16.07 646.71,637.40,16.07 648.96,641.15,16.07 649.71,646.40,16.07" />
    </edge>
    <edge id=":B_27" function="internal">
        <lane id=":B_27_0" index="0" speed="3.65" length="3.23" shape="638.91,635.20,16.07 639.31,636.00,16.07 638.91,636.80,16.07 637.71,637.60,16.07" />
    </edge>
    <edge id=":BA_0" function="internal">
        <lane id=":BA_0_0" index="0" speed="3.65" length="4.67" shape="649.71,934.07,16.07 648.91,935.27,16.07 648.11,935.67,16.07 647.31,935.27,16.07 646.51,934.07,16.07" />
    </edge>
    <edge id=":BB_0" function="internal">
        <lane id=":BB_0_0" index="0" speed="3.65" length="4.67" shape="946.19,634.40,16.07 947.39,635.20,16.07 947.79,636.00,16.07 947.39,636.80,16.07 946.19,637.60,16.07" />
    </edge>
    <edge id=":BC_0" function="internal">
        <lane id=":BC_0_0" index="0" speed="3.65" length="4.67" shape="646.51,337.92,16.07 647.31,336.72,16.07 648.11,336.32,16.07 648.91,336.72,16.07 649.71,337.92,16.07" />
    </edge>
    <edge id=":C_0" function="internal">
        <lane id=":C_0_0" index="0" speed="6.51" length="9.03" shape="345.23,328.40,12.60 344.88,325.95,12.60 343.83,324.20,12.60 342.08,323.15,12.60 339.63,322.80,12.60" />
    </edge>
    <edge id=":C_1" function="internal">
        <lane id=":C_1_0" index="0" speed="13.41" length="20.80" shape="345.23,328.40,12.60 345.23,307.60,12.60" />
        <lane id=":C_1_1" index="1" speed="13.41" length="20.80" shape="348.43,328.40,12.60 348.43,307.60,12.60" />
    </edge>
    <edge id=":C_3" function="internal">
        <lane id=":C_3_0" index="0" speed="9.26" length="5.01" shape="348.43,328.40,12.60 349.14,323.44,12.60" />
    </edge>
    <edge id=":C_4" function="internal">
        <lane id=":C_4_0" index="0" speed="3.65" length="1.44" shape="348.43,328.40,12.60 349.23,327.20,12.60" />
    </edge>
    <edge id=":C_20" function="internal">
        <lane id=":C_20_0" index="0" speed="9.26" length="14.34" shape="349.14,323.44,12.60 349.18,323.15,12.60 351.43,319.40,12.60 355.18,317.15,12.60 360.43,316.40,12.60" />
    </edge>
    <edge id=":C_21" function="internal">
        <lane id=":C_21_0" index="0" speed="3.65" length="3.23" shape="349.23,327.20,12.60 350.03,326.80,12.60 350.83,327.20,12.60 351.63,328.40,12.60" />
    </edge>
    <edge id=":C_5" function="internal">
        <lane id=":C_5_0" index="0" speed="6.51" length="9.03" shape="360.43,322.80,12.60 357.98,323.15,12.60 356.23,324.20,12.60 355.18,325.95,12.60 354.83,328.40,12.60" />
    </edge>
    <edge id=":C_6" function="internal">
        <lane id=":C_6_0" index="0" speed="13.41" length="20.80" shape="360.43,322.80,12.60 339.63,322.80,12.60" />
        <lane id=":C_6_1" index="1" speed="13.41" length="20.80" shape="360.43,319.60,12.60 339.63,319.60,12.60" />
    </edge>
    <edge id=":C_8" function="internal">
        <lane id=":C_8_0" index="0" speed="9.26" length="5.01" shape="360.43,319.60,12.60 355.47,318.89,12.60" />
    </edge>
    <edge id=":C_9" function="internal">
        <lane id=":C_9_0" index="0" speed="3.65" length="1.44" shape="360.43,319.60,12.60 359.23,318.80,12.60" />
    </edge>
    <edge id=":C_22" function="internal">
        <lane id=":C_22_0" index="0" speed="9.26" length="14.34" shape="355.47,318.89,12.60 355.18,318.85,12.60 351.43,316.60,12.60 349.18,312.85,12.60 348.43,307.60,12.60" />
    </edge>
    <edge id=":C_23" function="internal">
        <lane id=":C_23_0" index="0" speed="3.65" length="3.23" shape="359.23,318.80,12.60 358.83,318.00,12.60 359.23,317.20,12.60 360.43,316.40,12.60" />
    </edge>
    <edge id=":C_10" function="internal">
        <lane id=":C_10_0" index="0" speed="6.51" length="9.03" shape="354.83,307.60,12.60 355.18,310.05,12.60 356.23,311.80,12.60 357.98,312.85,12.60 360.43,313.20,12.60" />
    </edge>
    <edge id=":C_11" function="internal">
        <lane id=":C_11_0" index="0" speed="13.41" length="20.80" shape="354.83,307.60,12.60 354.83,328.40,12.60" />
        <lane id=":C_11_1" index="1" speed="13.41" length="20.80" shape="351.63,307.60,12.60 351.63,328.40,12.60" />
    </edge>
    <edge id=":C_13" function="internal">
        <lane id=":C_13_0" index="0" speed="9.26" length="5.01" shape="351.63,307.60,12.60 350.92,312.56,12.60" />
    </edge>
    <edge id=":C_14" function="internal">
        <lane id=":C_14_0" index="0" speed="3.65" length="1.44" shape="351.63,307.60,12.60 350.83,308.80,12.60" />
    </edge>
    <edge id=":C_24" function="internal">
        <lane id=":C_24_0" index="0" speed="9.26" length="14.34" shape="350.92,312.56,12.60 350.88,312.85,12.60 348.63,316.60,12.60 344.88,318.85,12.60 339.63,319.60,12.60" />
    </edge>
    <edge id=":C_25" function="internal">
        <lane id=":C_25_0" index="0" speed="3.65" length="3.23" shape="350.83,308.80,12.60 350.03,309.20,12.60 349.23,308.80,12.60 348.43,307.60,12.60" />
    </edge>
    <edge id=":C_15" function="internal">
        <lane id=":C_15_0" index="0" speed="6.51" length="9.03" shape="339.63,313.20,12.60 342.08,312.85,12.60 343.83,311.80,12.60 344.88,310.05,12.60 345.23,307.60,12.60" />
    </edge>
    <edge id=":C_16" function="internal">
        <lane id=":C_16_0" index="0" speed="13.41" length="20.80" shape="339.63,313.20,12.60 360.43,313.20,12.60" />
        <lane id=":C_16_1" index="1" speed="13.41" length="20.80" shape="339.63,316.40,12.60 360.43,316.40,12.60" />
    </edge>
    <edge id=":C_18" function="internal">
        <lane id=":C_18_0" index="0" speed="9.26" length="5.01" shape="339.63,316.40,12.60 344.60,317.11,12.60" />
    </edge>
    <edge id=":C_19" function="internal">
        <lane id=":C_19_0" index="0" speed="3.65" length="1.44" shape="339.63,316.40,12.60 340.83,317.20,12.60" />
    </edge>
    <edge id=":C_26" function="internal">
        <lane id=":C_26_0" index="0" speed="9.26" length="14.34" shape="344.60,317.11,12.60 344.88,317.15,12.60 348.63,319.40,12.60 350.88,323.15,12.60 351.63,328.40,12.60" />
    </edge>
    <edge id=":C_27" function="internal">
        <lane id=":C_27_0" index="0" speed="3.65" length="3.23" shape="340.83,317.20,12.60 341.23,318.00,12.60 340.83,318.80,12.60 339.63,319.60,12.60" />
    </edge>
    <edge id=":CA_0" function="internal">
        <lane id=":CA_0_0" index="0" speed="3.65" length="4.67" shape="668.03,316.40,12.60 669.23,317.20,12.60 669.63,318.00,12.60 669.23,318.80,12.60 668.03,319.60,12.60" />
    </edge>
    <edge id=":CB_0" function="internal">
        <lane id=":CB_0_0" index="0" speed="3.65" length="4.67" shape="348.43,-0.00,12.60 349.23,-1.20,12.60 350.03,-1.60,12.60 350.83,-1.20,12.60 351.63,0.00,12.60" />
    </edge>
    <edge id=":CC_0" function="internal">
        <lane id=":CC_0_0" index="0" speed="3.65" length="4.67" shape="32.03,319.60,12.60 30.83,318.80,12.60 30.43,318.00,12.60 30.83,317.20,12.60 32.03,316.40,12.60" />
    </edge>
    <edge id=":D_0" function="internal">
        <lane id=":D_0_0" index="0" speed="6.51" length="9.03" shape="170.22,646.40,17.52 169.87,643.95,17.52 168.82,642.20,17.52 167.07,641.15,17.52 164.62,640.80,17.52" />
    </edge>
    <edge id=":D_1" function="internal">
        <lane id=":D_1_0" index="0" speed="13.41" length="20.80" shape="170.22,646.40,17.52 170.22,625.60,17.52" />
        <lane id=":D_1_1" index="1" speed="13.41" length="20.80" shape="173.42,646.40,17.52 173.42,625.60,17.52" />
    </edge>
    <edge id=":D_3" function="internal">
        <lane id=":D_3_0" index="0" speed="9.26" length="5.01" shape="173.42,646.40,17.52 174.13,641.43,17.52" />
    </edge>
    <edge id=":D_4" function="internal">
        <lane id=":D_4_0" index="0" speed="3.65" length="1.44" shape="173.42,646.40,17.52 174.22,645.20,17.52" />
    </edge>
    <edge id=":D_20" function="internal">
        <lane id=":D_20_0" index="0" speed="9.26" length="14.34" shape="174.13,641.43,17.52 174.17,641.15,17.52 176.42,637.40,17.52 180.17,635.15,17.52 185.42,634.40,17.52" />
    </edge>
    <edge id=":D_21" function="internal">
        <lane id=":D_21_0" index="0" speed="3.65" length="3.23" shape="174.22,645.20,17.52 175.02,644.80,17.52 175.82,645.20,17.52 176.62,646.40,17.52" />
    </edge>
    <edge id=":D_5" function="internal">
        <lane id=":D_5_0" index="0" speed="6.51" length="9.03" shape="185.42,640.80,17.52 182.97,641.15,17.52 181.22,642.20,17.52 180.17,643.95,17.52 179.82,646.40,17.52" />
    </edge>
    <edge id=":D_6" function="internal">
        <lane id=":D_6_0" index="0" speed="13.41" length="20.80" shape="185.42,640.80,17.52 164.62,640.80,17.52" />
        <lane id=":D_6_1" index="1" speed="13.41" length="20.80" shape="185.42,637.60,17.52 164.62,637.60,17.52" />
    </edge>
    <edge id=":D_8" function="internal">
        <lane id=":D_8_0" index="0" speed="9.26" length="5.01" shape="185.42,637.60,17.52 180.45,636.89,17.52" />
    </edge>
    <edge id=":D_9" function="internal">
        <lane id=":D_9_0" index="0" speed="3.65" length="1.44" shape="185.42,637.60,17.52 184.22,636.80,17.52" />
    </edge>
    <edge id=":D_22" function="internal">
        <lane id=":D_22_0" index="0" speed="9.26" length="14.34" shape="180.45,636.89,17.52 180.17,636.85,17.52 176.42,634.60,17.52 174.17,630.85,17.52 173.42,625.60,17.52" />
    </edge>
    <edge id=":D_23" function="internal">
        <lane id=":D_23_0" index="0" speed="3.65" length="3.23" shape="184.22,636.80,17.52 183.82,636.00,17.52 184.22,635.20,17.52 185.42,634.40,17.52" />
    </edge>
    <edge id=":D_10" function="internal">
        <lane id=":D_10_0" index="0" speed="6.51" length="9.03" shape="179.82,625.60,17.52 180.17,628.05,17.52 181.22,629.80,17.52 182.97,630.85,17.52 185.42,631.20,17.52" />
    </edge>
    <edge id=":D_11" function="internal">
        <lane id=":D_11_0" index="0" speed="13.41" length="20.80" shape="179.82,625.60,17.52 179.82,646.40,17.52" />
        <lane id=":D_11_1" index="1" speed="13.41" length="20.80" shape="176.62,625.60,17.52 176.62,646.40,17.52" />
    </edge>
    <edge id=":D_13" function="internal">
        <lane id=":D_13_0" index="0" speed="9.26" length="5.01" shape="176.62,625.60,17.52 175.91,630.56,17.52" />
    </edge>
    <edge id=":D_14" function="internal">
        <lane id=":D_14_0" index="0" speed="3.65" length="1.44" shape="176.62,625.60,17.52 175.82,626.80,17.52" />
    </edge>
    <edge id=":D_24" function="internal">
        <lane id=":D_24_0" index="0" speed="9.26" length="14.34" shape="175.91,630.56,17.52 175.87,630.85,17.52 173.62,634.60,17.52 169.87,636.85,17.52 164.62,637.60,17.52" />
    </edge>
    <edge id=":D_25" function="internal">
        <lane id=":D_25_0" index="0" speed="3.65" length="3.23" shape="175.82,626.80,17.52 175.02,627.20,17.52 174.22,626.80,17.52 173.42,625.60,17.52" />
    </edge>
    <edge id=":D_15" function="internal">
        <lane id=":D_15_0" index="0" speed="6.51" length="9.03" shape="164.62,631.20,17.52 167.07,630.85,17.52 168.82,629.80,17.52 169.87,628.05,17.52 170.22,625.60,17.52" />
    </edge>
    <edge id=":D_16" function="internal">
        <lane id=":D_16_0" index="0" speed="13.41" length="20.80" shape="164.62,631.20,17.52 185.42,631.20,17.52" />
        <lane id=":D_16_1" index="1" speed="13.41" length="20.80" shape="164.62,634.40,17.52 185.42,634.40,17.52" />
    </edge>
    <edge id=":D_18" function="internal">
        <lane id=":D_18_0" index="0" speed="9.26" length="5.01" shape="164.62,634.40,17.52 169.58,635.11,17.52" />
    </edge>
    <edge id=":D_19" function="internal">
        <lane id=":D_19_0" index="0" speed="3.65" length="1.44" shape="164.62,634.40,17.52 165.82,635.20,17.52" />
    </edge>
    <edge id=":D_26" function="internal">
        <lane id=":D_26_0" index="0" speed="9.26" length="14.34" shape="169.58,635.11,17.52 169.87,635.15,17.52 173.62,637.40,17.52 175.87,641.15,17.52 176.62,646.40,17.52" />
    </edge>
    <edge id=":D_27" function="internal">
        <lane id=":D_27_0" index="0" speed="3.65" length="3.23" shape="165.82,635.20,17.52 166.22,636.00,17.52 165.82,636.80,17.52 164.62,637.60,17.52" />
    </edge>
    <edge id=":DA_0" function="internal">
        <lane id=":DA_0_0" index="0" speed="3.65" length="4.67" shape="173.42,460.98,17.52 174.22,459.78,17.52 175.02,459.38,17.52 175.82,459.78,17.52 176.62,460.98,17.52" />
    </edge>
    <edge id=":DB_0" function="internal">
        <lane id=":DB_0_0" index="0" speed="3.65" length="4.67" shape="0.00,637.60,17.52 -1.20,636.80,17.52 -1.60,636.00,17.52 -1.20,635.20,17.52 0.00,634.40,17.52" />
    </edge>
    <edge id=":DC_0" function="internal">
        <lane id=":DC_0_0" index="0" speed="3.65" length="4.67" shape="176.62,811.01,17.52 175.82,812.21,17.52 175.02,812.61,17.52 174.22,812.21,17.52 173.42,811.01,17.52" />
    </edge>
    <edge id=":TL_0" function="internal">
        <lane id=":TL_0_0" index="0" speed="6.51" length="9.03" shape="345.23,646.40 344.88,643.95 343.83,642.20 342.08,641.15 339.63,640.80" />
    </edge>
    <edge id=":TL_1" function="internal">
        <lane id=":TL_1_0" index="0" speed="13.41" length="20.80" shape="345.23,646.40 345.23,625.60" />
        <lane id=":TL_1_1" index="1" speed="13.41" length="20.80" shape="348.43,646.40 348.43,625.60" />
    </edge>
    <edge id=":TL_3" function="internal">
        <lane id=":TL_3_0" index="0" speed="9.26" length="5.01" shape="348.43,646.40 349.14,641.43" />
    </edge>
    <edge id=":TL_16" function="internal">
        <lane id=":TL_16_0" index="0" speed="9.26" length="14.34" shape="349.14,641.43 349.18,641.15 351.43,637.40 355.18,635.15 360.43,634.40" />
    </edge>
    <edge id=":TL_4" function="internal">
        <lane id=":TL_4_0" index="0" speed="6.51" length="9.03" shape="360.43,640.80 357.98,641.15 356.23,642.20 355.18,643.95 354.83,646.40" />
    </edge>
    <edge id=":TL_5" function="internal">
        <lane id=":TL_5_0" index="0" speed="13.41" length="20.80" shape="360.43,640.80 339.63,640.80" />
        <lane id=":TL_5_1" index="1" speed="13.41" length="20.80" shape="360.43,637.60 339.63,637.60" />
    </edge>
    <edge id=":TL_7" function="internal">
        <lane id=":TL_7_0" index="0" speed="9.26" length="5.01" shape="360.43,637.60 355.47,636.89" />
    </edge>
    <edge id=":TL_17" function="internal">
        <lane id=":TL_17_0" index="0" speed="9.26" length="14.34" shape="355.47,636.89 355.18,636.85 351.43,634.60 349.18,630.85 348.43,625.60" />
    </edge>
    <edge id=":TL_8" function="internal">
        <lane id=":TL_8_0" index="0" speed="6.51" length="9.03" shape="354.83,625.60 355.18,628.05 356.23,629.80 357.98,630.85 360.43,631.20" />
    </edge>
    <edge id=":TL_9" function="internal">
        <lane id=":TL_9_0" index="0" speed="13.41" length="20.80" shape="354.83,625.60 354.83,646.40" />
        <lane id=":TL_9_1" index="1" speed="13.41" length="20.80" shape="351.63,625.60 351.63,646.40" />
    </edge>
    <edge id=":TL_11" function="internal">
        <lane id=":TL_11_0" index="0" speed="9.26" length="5.01" shape="351.63,625.60 350.92,630.56" />
    </edge>
    <edge id=":TL_18" function="internal">
        <lane id=":TL_18_0" index="0" speed="9.26" length="14.34" shape="350.92,630.56 350.88,630.85 348.63,634.60 344.88,636.85 339.63,637.60" />
    </edge>
    <edge id=":TL_12" function="internal">
        <lane id=":TL_12_0" index="0" speed="6.51" length="9.03" shape="339.63,631.20 342.08,630.85 343.83,629.80 344.88,628.05 345.23,625.60" />
    </edge>
    <edge id=":TL_13" function="internal">
        <lane id=":TL_13_0" index="0" speed="13.41" length="20.80" shape="339.63,631.20 360.43,631.20" />
        <lane id=":TL_13_1" index="1" speed="13.41" length="20.80" shape="339.63,634.40 360.43,634.40" />
    </edge>
    <edge id=":TL_15" function="internal">
        <lane id=":TL_15_0" index="0" speed="9.26" length="5.01" shape="339.63,634.40 344.60,635.11" />
    </edge>
    <edge id=":TL_19" function="internal">
        <lane id=":TL_19_0" index="0" speed="9.26" length="14.34" shape="344.60,635.11 344.88,635.15 348.63,637.40 350.88,641.15 351.63,646.40" />
    </edge>

    <edge id="A2AA" from="A" to="AA" priority="-1">
        <lane id="A2AA_0" index="0" speed="13.41" length="306.31" shape="339.63,957.51,13.41 33.32,957.51,13.41" />
        <lane id="A2AA_1" index="1" speed="13.41" length="306.31" shape="339.63,954.31,13.41 33.32,954.31,13.41" />
    </edge>
    <edge id="A2AB" from="A" to="AB" priority="-1">
        <lane id="A2AB_0" index="0" speed="13.41" length="306.31" shape="354.83,963.11,13.41 354.83,1269.43,13.41" />
        <lane id="A2AB_1" index="1" speed="13.41" length="306.31" shape="351.63,963.11,13.41 351.63,1269.43,13.41" />
    </edge>
    <edge id="A2AC" from="A" to="AC" priority="-1">
        <lane id="A2AC_0" index="0" speed="13.41" length="306.31" shape="360.43,947.91,13.41 666.75,947.91,13.41" />
        <lane id="A2AC_1" index="1" speed="13.41" length="306.31" shape="360.43,951.11,13.41 666.75,951.11,13.41" />
    </edge>
    <edge id="A2TL" from="A" to="TL" priority="-1">
        <lane id="A2TL_0" index="0" speed="13.41" length="296.22" shape="345.23,942.31,13.41 345.23,646.40" />
        <lane id="A2TL_1" index="1" speed="13.41" length="296.22" shape="348.43,942.31,13.41 348.43,646.40" />
    </edge>
    <edge id="AA2A" from="AA" to="A" priority="-1">
        <lane id="AA2A_0" index="0" speed="13.41" length="306.31" shape="33.32,947.91,13.41 339.63,947.91,13.41" />
        <lane id="AA2A_1" index="1" speed="13.41" length="306.31" shape="33.32,951.11,13.41 339.63,951.11,13.41" />
    </edge>
    <edge id="AB2A" from="AB" to="A" priority="-1">
        <lane id="AB2A_0" index="0" speed="13.41" length="306.31" shape="345.23,1269.43,13.41 345.23,963.11,13.41" />
        <lane id="AB2A_1" index="1" speed="13.41" length="306.31" shape="348.43,1269.43,13.41 348.43,963.11,13.41" />
    </edge>
    <edge id="AC2A" from="AC" to="A" priority="-1">
        <lane id="AC2A_0" index="0" speed="13.41" length="306.31" shape="666.75,957.51,13.41 360.43,957.51,13.41" />
        <lane id="AC2A_1" index="1" speed="13.41" length="306.31" shape="666.75,954.31,13.41 360.43,954.31,13.41" />
    </edge>
    <edge id="B2BA" from="B" to="BA" priority="-1">
        <lane id="B2BA_0" index="0" speed="13.41" length="287.68" shape="652.91,646.40,16.07 652.91,934.07,16.07" />
        <lane id="B2BA_1" index="1" speed="13.41" length="287.68" shape="649.71,646.40,16.07 649.71,934.07,16.07" />
    </edge>
    <edge id="B2BB" from="B" to="BB" priority="-1">
        <lane id="B2BB_0" index="0" speed="13.41" length="287.68" shape="658.51,631.20,16.07 946.19,631.20,16.07" />
        <lane id="B2BB_1" index="1" speed="13.41" length="287.68" shape="658.51,634.40,16.07 946.19,634.40,16.07" />
    </edge>
    <edge id="B2BC" from="B" to="BC" priority="-1">
        <lane id="B2BC_0" index="0" speed="13.41" length="287.68" shape="643.31,625.60,16.07 643.31,337.92,16.07" />
        <lane id="B2BC_1" index="1" speed="13.41" length="287.68" shape="646.51,625.60,16.07 646.51,337.92,16.07" />
    </edge>