<net xmlns:xsi="http://www.w3.org/2001/XMLSchema-instance" version="1.9" junctionCornerDetail="5" limitTurnSpeed="5.50" xsi:noNamespaceSchemaLocation="http://sumo.dlr.de/xsd/net_file.xsd">

    <location netOffset="632.51,316.25" convBoundary="0.00,0.00,1141.53,954.09" origBoundary="-632.51,-316.25,509.03,637.84" projParameter="!" />

    <edge id=":A_0" function="internal">
        <lane id=":A_0_0" index="0" speed="6.51" length="9.03" shape="627.71,645.57,1.65 627.36,643.12,1.65 626.31,641.37,1.65 624.56,640.32,1.65 622.11,639.97,1.65" />
    </edge>
    <edge id=":A_1" function="internal">
        <lane id=":A_1_0" index="0" speed="13.41" length="20.80" shape="627.71,645.57,1.65 627.71,624.77,1.60" />
        <lane id=":A_1_1" index="1" speed="13.41" length="20.80" shape="630.91,645.57,1.65 630.91,624.77,1.60" />
    </edge>
    <edge id=":A_3" function="internal">
        <lane id=":A_3_0" index="0" speed="9.26" length="5.01" shape="630.91,645.57,1.65 631.62,640.61,1.65" />
    </edge>
    <edge id=":A_4" function="internal">
        <lane id=":A_4_0" index="0" speed="3.65" length="1.44" shape="630.91,645.57,1.65 631.71,644.37,1.65" />
    </edge>
    <edge id=":A_20" function="internal">
        <lane id=":A_20_0" index="0" speed="9.26" length="14.34" shape="631.62,640.61,1.65 631.66,640.32,1.65 633.91,636.57,1.65 637.66,634.32,1.65 642.91,633.57,1.65" />
    </edge>
    <edge id=":A_21" function="internal">
        <lane id=":A_21_0" index="0" speed="3.65" length="3.23" shape="631.71,644.37,1.65 632.51,643.97,1.65 633.31,644.37,1.65 634.11,645.57,1.65" />
    </edge>
    <edge id=":A_5" function="internal">
        <lane id=":A_5_0" index="0" speed="6.51" length="9.03" shape="642.91,639.97,1.65 640.46,640.32,1.65 638.71,641.37,1.65 637.66,643.12,1.65 637.31,645.57,1.65" />
    </edge>
    <edge id=":A_6" function="internal">
        <lane id=":A_6_0" index="0" speed="13.41" length="20.80" shape="642.91,639.97,1.65 622.11,639.97,1.65" />
        <lane id=":A_6_1" index="1" speed="13.41" length="20.80" shape="642.91,636.77,1.65 622.11,636.77,1.65" />
    </edge>
    <edge id=":A_8" function="internal">
        <lane id=":A_8_0" index="0" speed="9.26" length="5.01" shape="642.91,636.77,1.65 637.94,636.06,1.64" />
    </edge>
    <edge id=":A_9" function="internal">
        <lane id=":A_9_0" index="0" speed="3.65" length="1.44" shape="642.91,636.77,1.65 641.71,635.97,1.65" />
    </edge>
    <edge id=":A_22" function="internal">
        <lane id=":A_22_0" index="0" speed="9.26" length="14.34" shape="637.94,636.06,1.64 637.66,636.02,1.64 633.91,633.77,1.63 631.66,630.02,1.61 630.91,624.77,1.60" />
    </edge>
    <edge id=":A_23" function="internal">
        <lane id=":A_23_0" index="0" speed="3.65" length="3.23" shape="641.71,635.97,1.65 641.31,635.17,1.65 641.71,634.37,1.65 642.91,633.57,1.65" />
    </edge>
    <edge id=":A_10" function="internal">
        <lane id=":A_10_0" index="0" speed="6.51" length="9.03" shape="637.31,624.77,1.60 637.66,627.22,1.61 638.71,628.97,1.63 640.46,630.02,1.64 642.91,630.37,1.65" />
    </edge>
    <edge id=":A_11" function="internal">
        <lane id=":A_11_0" index="0" speed="13.41" length="20.80" shape="637.31,624.77,1.60 637.31,645.57,1.65" />
        <lane id=":A_11_1" index="1" speed="13.41" length="20.80" shape="634.11,624.77,1.60 634.11,645.57,1.65" />
    </edge>
    <edge id=":A_13" function="internal">
        <lane id=":A_13_0" index="0" speed="9.26" length="5.01" shape="634.11,624.77,1.60 633.40,629.74,1.61" />
    </edge>
    <edge id=":A_14" function="internal">
        <lane id=":A_14_0" index="0" speed="3.65" length="1.44" shape="634.11,624.77,1.60 633.31,625.97,1.60" />
    </edge>
    <edge id=":A_24" function="internal">
        <lane id=":A_24_0" index="0" speed="9.26" length="14.34" shape="633.40,629.74,1.61 633.36,630.02,1.61 631.11,633.77,1.63 627.36,636.02,1.64 622.11,636.77,1.65" />
    </edge>
    <edge id=":A_25" function="internal">
        <lane id=":A_25_0" index="0" speed="3.65" length="3.23" shape="633.31,625.97,1.60 632.51,626.37,1.60 631.71,625.97,1.60 630.91,624.77,1.60" />
    </edge>
    <edge id=":A_15" function="internal">
        <lane id=":A_15_0" index="0" speed="6.51" length="9.03" shape="622.11,630.37,1.65 624.56,630.02,1.64 626.31,628.97,1.63 627.36,627.22,1.61 627.71,624.77,1.60" />
    </edge>
    <edge id=":A_16" function="internal">
        <lane id=":A_16_0" index="0" speed="13.41" length="20.80" shape="622.11,630.37,1.65 642.91,630.37,1.65" />
        <lane id=":A_16_1" index="1" speed="13.41" length="20.80" shape="622.11,633.57,1.65 642.91,633.57,1.65" />
    </edge>
    <edge id=":A_18" function="internal">
        <lane id=":A_18_0" index="0" speed="9.26" length="5.01" shape="622.11,633.57,1.65 627.07,634.28,1.65" />
    </edge>
    <edge id=":A_19" function="internal">
        <lane id=":A_19_0" index="0" speed="3.65" length="1.44" shape="622.11,633.57,1.65 623.31,634.37,1.65" />
    </edge>
    <edge id=":A_26" function="internal">
        <lane id=":A_26_0" index="0" speed="9.26" length="14.34" shape="627.07,634.28,1.65 627.36,634.32,1.65 631.11,636.57,1.65 633.36,640.32,1.65 634.11,645.57,1.65" />
    </edge>
    <edge id=":A_27" function="internal">
        <lane id=":A_27_0" index="0" speed="3.65" length="3.23" shape="623.31,634.37,1.65 623.71,635.17,1.65 623.31,635.97,1.65 622.11,636.77,1.65" />
    </edge>
    <edge id=":AA_0" function="internal">
        <lane id=":AA_0_0" index="0" speed="3.65" length="4.67" shape="313.59,636.77,1.65 312.39,635.97,1.65 311.99,635.17,1.65 312.39,634.37,1.65 313.59,633.57,1.65" />
    </edge>
    <edge id=":AB_0" function="internal">
        <lane id=":AB_0_0" index="0" speed="3.65" length="4.67" shape="634.11,954.09,1.65 633.31,955.29,1.65 632.51,955.69,1.65 631.71,955.29,1.65 630.91,954.09,1.65" />
    </edge>
    <edge id=":AC_0" function="internal">
        <lane id=":AC_0_0" index="0" speed="3.65" length="4.67" shape="951.43,633.57,1.65 952.63,634.37,1.65 953.03,635.17,1.65 952.63,635.97,1.65 951.43,636.77,1.65" />
    </edge>
    <edge id=":B_0" function="internal">
        <lane id=":B_0_0" index="0" speed="6.51" length="9.03" shape="882.22,326.65,1.32 881.87,324.20,1.30 880.82,322.45,1.29 879.07,321.40,1.28 876.62,321.05,1.26" />
    </edge>
    <edge id=":B_1" function="internal">
        <lane id=":B_1_0" index="0" speed="11.18" length="20.80" shape="882.22,326.65,1.32 882.22,305.85,1.32" />
        <lane id=":B_1_1" index="1" speed="11.18" length="20.80" shape="885.42,326.65,1.32 885.42,305.85,1.32" />
    </edge>
    <edge id=":B_3" function="internal">
        <lane id=":B_3_0" index="0" speed="9.26" length="5.01" shape="885.42,326.65,1.32 886.13,321.69,1.32" />
    </edge>
    <edge id=":B_4" function="internal">
        <lane id=":B_4_0" index="0" speed="3.65" length="1.44" shape="885.42,326.65,1.32 886.22,325.45,1.32" />
    </edge>
    <edge id=":B_20" function="internal">
        <lane id=":B_20_0" index="0" speed="9.26" length="14.34" shape="886.13,321.69,1.32 886.17,321.40,1.32 888.42,317.65,1.32 892.17,315.40,1.32 897.42,314.65,1.32" />
    </edge>
    <edge id=":B_21" function="internal">
        <lane id=":B_21_0" index="0" speed="3.65" length="3.23" shape="886.22,325.45,1.32 887.02,325.05,1.32 887.82,325.45,1.32 888.62,326.65,1.32" />
    </edge>
    <edge id=":B_5" function="internal">
        <lane id=":B_5_0" index="0" speed="6.51" length="9.03" shape="897.42,321.05,1.32 894.97,321.40,1.32 893.22,322.45,1.32 892.17,324.20,1.32 891.82,326.65,1.32" />
    </edge>
    <edge id=":B_6" function="internal">
        <lane id=":B_6_0" index="0" speed="11.18" length="20.80" shape="897.42,321.05,1.32 876.62,321.05,1.26" />
        <lane id=":B_6_1" index="1" speed="11.18" length="20.80" shape="897.42,317.85,1.32 876.62,317.85,1.26" />
    </edge>
    <edge id=":B_8" function="internal">
        <lane id=":B_8_0" index="0" speed="9.26" length="5.01" shape="897.42,317.85,1.32 892.46,317.14,1.32" />
    </edge>
    <edge id=":B_9" function="internal">
        <lane id=":B_9_0" index="0" speed="3.65" length="1.44" shape="897.42,317.85,1.32 896.22,317.05,1.32" />
    </edge>
    <edge id=":B_22" function="internal">
        <lane id=":B_22_0" index="0" speed="9.26" length="14.34" shape="892.46,317.14,1.32 892.17,317.10,1.32 888.42,314.85,1.32 886.17,311.10,1.32 885.42,305.85,1.32" />
    </edge>
    <edge id=":B_23" function="internal">
        <lane id=":B_23_0" index="0" speed="3.65" length="3.23" shape="896.22,317.05,1.32 895.82,316.25,1.32 896.22,315.45,1.32 897.42,314.65,1.32" />
    </edge>
    <edge id=":B_10" function="internal">
        <lane id=":B_10_0" index="0" speed="6.51" length="9.03" shape="891.82,305.85,1.32 892.17,308.30,1.32 893.22,310.05,1.32 894.97,311.10,1.32 897.42,311.45,1.32" />
    </edge>
    <edge id=":B_11" function="internal">
        <lane id=":B_11_0" index="0" speed="11.18" length="20.80" shape="891.82,305.85,1.32 891.82,326.65,1.32" />
        <lane id=":B_11_1" index="1" speed="11.18" length="20.80" shape="888.62,305.85,1.32 888.62,326.65,1.32" />
    </edge>
    <edge id=":B_13" function="internal">
        <lane id=":B_13_0" index="0" speed="9.26" length="5.01" shape="888.62,305.85,1.32 887.91,310.82,1.30" />
    </edge>
    <edge id=":B_14" function="internal">
        <lane id=":B_14_0" index="0" speed="3.65" length="1.44" shape="888.62,305.85,1.32 887.82,307.05,1.32" />
    </edge>
    <edge id=":B_24" function="internal">
        <lane id=":B_24_0" index="0" speed="9.26" length="14.34" shape="887.91,310.82,1.30 887.87,311.10,1.30 885.62,314.85,1.29 881.87,317.10,1.28 876.62,317.85,1.26" />
    </edge>
    <edge id=":B_25" function="internal">
        <lane id=":B_25_0" index="0" speed="3.65" length="3.23" shape="887.82,307.05,1.32 887.02,307.45,1.32 886.22,307.05,1.32 885.42,305.85,1.32" />
    </edge>
    <edge id=":B_15" function="internal">
        <lane id=":B_15_0" index="0" speed="6.51" length="9.03" shape="876.62,311.45,1.26 879.07,311.10,1.28 880.82,310.05,1.29 881.87,308.30,1.30 882.22,305.85,1.32" />
    </edge>
    <edge id=":B_16" function="internal">
        <lane id=":B_16_0" index="0" speed="11.18" length="20.80" shape="876.62,311.45,1.26 897.42,311.45,1.32" />
        <lane id=":B_16_1" index="1" speed="11.18" length="20.80" shape="876.62,314.65,1.26 897.42,314.65,1.32" />
    </edge>
    <edge id=":B_18" function="internal">
        <lane id=":B_18_0" index="0" speed="9.26" length="5.01" shape="876.62,314.65,1.26 881.58,315.36,1.28" />
    </edge>
    <edge id=":B_19" function="internal">
        <lane id=":B_19_0" index="0" speed="3.65" length="1.44" shape="876.62,314.65,1.26 877.82,315.45,1.26" />
    </edge>
    <edge id=":B_26" function="internal">
        <lane id=":B_26_0" index="0" speed="9.26" length="14.34" shape="881.58,315.36,1.28 881.87,315.40,1.28 885.62,317.65,1.29 887.87,321.40,1.30 888.62,326.65,1.32" />
    </edge>
    <edge id=":B_27" function="internal">
        <lane id=":B_27_0" index="0" speed="3.65" length="3.23" shape="877.82,315.45,1.26 878.22,316.25,1.26 877.82,317.05,1.26 876.62,317.85,1.26" />
    </edge>
    <edge id=":BA_0" function="internal">
        <lane id=":BA_0_0" index="0" speed="3.65" length="4.67" shape="888.62,570.77,1.32 887.82,571.97,1.32 887.02,572.37,1.32 886.22,571.97,1.32 885.42,570.77,1.32" />
    </edge>
    <edge id=":BB_0" function="internal">
        <lane id=":BB_0_0" index="0" speed="3.65" length="4.67" shape="1141.53,314.65,1.32 1142.73,315.45,1.32 1143.13,316.25,1.32 1142.73,317.05,1.32 1141.53,317.85,1.32" />
    </edge>
    <edge id=":BC_0" function="internal">
        <lane id=":BC_0_0" index="0" speed="3.65" length="4.67" shape="885.42,61.74,1.32 886.22,60.54,1.32 887.02,60.14,1.32 887.82,60.54,1.32 888.62,61.74,1.32" />
    </edge>
    <edge id=":B_intern_0" function="internal">
        <lane id=":B_intern_0_0" index="0" speed="11.18" length="8.54" shape="686.51,321.05,0.28 684.05,321.55,0.27 682.51,322.65,0.26 680.97,323.75,0.25 678.51,324.25,0.24" />
        <lane id=":B_intern_0_1" index="1" speed="11.18" length="8.54" shape="686.51,317.85,0.28 684.05,318.35,0.27 682.51,319.45,0.26 680.97,320.55,0.25 678.51,321.05,0.24" />
        <lane id=":B_intern_0_2" index="2" speed="11.18" length="8.54" shape="686.51,317.85,0.28 678.51,317.85,0.24" />
    </edge>
    <edge id=":C_0" function="internal">
        <lane id=":C_0_0" index="0" speed="6.51" length="9.03" shape="627.71,169.57,0.54 627.36,167.12,0.55 626.31,165.37,0.56 624.56,164.32,0.56 622.11,163.97,0.57" />
    </edge>
    <edge id=":C_1" function="internal">
        <lane id=":C_1_0" index="0" speed="13.41" length="20.80" shape="627.71,169.57,0.54 627.71,148.77,0.57" />
        <lane id=":C_1_1" index="1" speed="13.41" length="20.80" shape="630.91,169.57,0.54 630.91,148.77,0.57" />
    </edge>
    <edge id=":C_3" function="internal">
        <lane id=":C_3_0" index="0" speed="9.26" length="5.01" shape="630.91,169.57,0.54 631.62,164.61,0.55" />
    </edge>
    <edge id=":C_4" function="internal">
        <lane id=":C_4_0" index="0" speed="3.65" length="1.44" shape="630.91,169.57,0.54 631.71,168.37,0.54" />
    </edge>
    <edge id=":C_20" function="internal">
        <lane id=":C_20_0" index="0" speed="9.26" length="14.34" shape="631.62,164.61,0.55 631.66,164.32,0.55 633.91,160.57,0.56 637.66,158.32,0.56 642.91,157.57,0.57" />
    </edge>
    <edge id=":C_21" function="internal">
        <lane id=":C_21_0" index="0" speed="3.65" length="3.23" shape="631.71,168.37,0.54 632.51,167.97,0.54 633.31,168.37,0.54 634.11,169.57,0.54" />
    </edge>
    <edge id=":C_5" function="internal">
        <lane id=":C_5_0" index="0" speed="6.51" length="9.03" shape="642.91,163.97,0.57 640.46,164.32,0.56 638.71,165.37,0.56 637.66,167.12,0.55 637.31,169.57,0.54" />
    </edge>
    <edge id=":C_6" function="internal">
        <lane id=":C_6_0" index="0" speed="13.41" length="20.80" shape="642.91,163.97,0.57 622.11,163.97,0.57" />
        <lane id=":C_6_1" index="1" speed="13.41" length="20.80" shape="642.91,160.77,0.57 622.11,160.77,0.57" />
    </edge>
    <edge id=":C_8" function="internal">
        <lane id=":C_8_0" index="0" speed="9.26" length="5.01" shape="642.91,160.77,0.57 637.94,160.06,0.57" />
    </edge>
    <edge id=":C_9" function="internal">
        <lane id=":C_9_0" index="0" speed="3.65" length="1.44" shape="642.91,160.77,0.57 641.71,159.97,0.57" />
    </edge>
    <edge id=":C_22" function="internal">
        <lane id=":C_22_0" index="0" speed="9.26" length="14.34" shape="637.94,160.06,0.57 637.66,160.02,0.57 633.91,157.77,0.57 631.66,154.02,0.57 630.91,148.77,0.57" />
    </edge>
    <edge id=":C_23" function="internal">
        <lane id=":C_23_0" index="0" speed="3.65" length="3.23" shape="641.71,159.97,0.57 641.31,159.17,0.57 641.71,158.37,0.57 642.91,157.57,0.57" />
    </edge>
    <edge id=":C_10" function="internal">
        <lane id=":C_10_0" index="0" speed="6.51" length="9.03" shape="637.31,148.77,0.57 637.66,151.22,0.57 638.71,152.97,0.57 640.46,154.02,0.57 642.91,154.37,0.57" />
    </edge>
    <edge id=":C_11" function="internal">
        <lane id=":C_11_0" index="0" speed="13.41" length="20.80" shape="637.31,148.77,0.57 637.31,169.57,0.54" />
        <lane id=":C_11_1" index="1" speed="13.41" length="20.80" shape="634.11,148.77,0.57 634.11,169.57,0.54" />
    </edge>
    <edge id=":C_13" function="internal">
        <lane id=":C_13_0" index="0" speed="9.26" length="5.01" shape="634.11,148.77,0.57 633.40,153.73,0.57" />
    </edge>
    <edge id=":C_14" function="internal">
        <lane id=":C_14_0" index="0" speed="3.65" length="1.44" shape="634.11,148.77,0.57 633.31,149.97,0.57" />
    </edge>
    <edge id=":C_24" function="internal">
        <lane id=":C_24_0" index="0" speed="9.26" length="14.34" shape="633.40,153.73,0.57 633.36,154.02,0.57 631.11,157.77,0.57 627.36,160.02,0.57 622.11,160.77,0.57" />
    </edge>
    <edge id=":C_25" function="internal">
        <lane id=":C_25_0" index="0" speed="3.65" length="3.23" shape="633.31,149.97,0.57 632.51,150.37,0.57 631.71,149.97,0.57 630.91,148.77,0.57" />
    </edge>
    <edge id=":C_15" function="internal">
        <lane id=":C_15_0" index="0" speed="6.51" length="9.03" shape="622.11,154.37,0.57 624.56,154.02,0.57 626.31,152.97,0.57 627.36,151.22,0.57 627.71,148.77,0.57" />
    </edge>
    <edge id=":C_16" function="internal">
        <lane id=":C_16_0" index="0" speed="13.41" length="20.80" shape="622.11,154.37,0.57 642.91,154.37,0.57" />
        <lane id=":C_16_1" index="1" speed="13.41" length="20.80" shape="622.11,157.57,0.57 642.91,157.57,0.57" />
    </edge>
    <edge id=":C_18" function="internal">
        <lane id=":C_18_0" index="0" speed="9.26" length="5.01" shape="622.11,157.57,0.57 627.07,158.28,0.56" />
    </edge>
    <edge id=":C_19" function="internal">
        <lane id=":C_19_0" index="0" speed="3.65" length="1.44" shape="622.11,157.57,0.57 623.31,158.37,0.57" />
    </edge>
    <edge id=":C_26" function="internal">
        <lane id=":C_26_0" index="0" speed="9.26" length="14.34" shape="627.07,158.28,0.56 627.36,158.32,0.56 631.11,160.57,0.56 633.36,164.32,0.55 634.11,169.57,0.54" />
    </edge>
    <edge id=":C_27" function="internal">
        <lane id=":C_27_0" index="0" speed="3.65" length="3.23" shape="623.31,158.37,0.57 623.71,159.17,0.57 623.31,159.97,0.57 622.11,160.77,0.57" />
    </edge>
    <edge id=":CA_0" function="internal">
        <lane id=":CA_0_0" index="0" speed="3.65" length="4.67" shape="789.59,157.57,0.57 790.79,158.37,0.57 791.19,159.17,0.57 790.79,159.97,0.57 789.59,160.77,0.57" />
    </edge>
    <edge id=":CB_0" function="internal">
        <lane id=":CB_0_0" index="0" speed="3.65" length="4.67" shape="630.91,2.09,0.57 631.71,0.89,0.57 632.51,0.49,0.57 633.31,0.89,0.57 634.11,2.09,0.57" />
    </edge>
    <edge id=":CC_0" function="internal">
        <lane id=":CC_0_0" index="0" speed="3.65" length="4.67" shape="475.42,160.77,0.57 474.22,159.97,0.57 473.82,159.17,0.57 474.22,158.37,0.57 475.42,157.57,0.57" />
    </edge>
    <edge id=":C_intern_0" function="internal">
        <lane id=":C_intern_0_0" index="0" speed="13.41" length="8.54" shape="637.31,262.25,0.20 637.81,264.72,0.19 638.91,266.25,0.18 640.01,267.79,0.18 640.51,270.25,0.17" />
        <lane id=":C_intern_0_1" index="1" speed="13.41" length="8.54" shape="634.11,262.25,0.20 634.61,264.72,0.19 635.71,266.25,0.18 636.81,267.79,0.18 637.31,270.25,0.17" />
        <lane id=":C_intern_0_2" index="2" speed="13.41" length="8.54" shape="634.11,262.25,0.20 634.11,270.25,0.17" />
    </edge>
    <edge id=":D_0" function="internal">
        <lane id=":D_0_0" index="0" speed="6.51" length="9.03" shape="311.45,326.65,-0.48 311.10,324.20,-0.48 310.05,322.45,-0.48 308.30,321.40,-0.48 305.85,321.05,-0.48" />
    </edge>
    <edge id=":D_1" function="internal">
        <lane id=":D_1_0" index="0" speed="13.41" length="20.80" shape="311.45,326.65,-0.48 311.45,305.85,-0.48" />
        <lane id=":D_1_1" index="1" speed="13.41" length="20.80" shape="314.65,326.65,-0.48 314.65,305.85,-0.48" />
    </edge>
    <edge id=":D_3" function="internal">
        <lane id=":D_3_0" index="0" speed="9.26" length="5.01" shape="314.65,326.65,-0.48 315.36,321.69,-0.48" />
    </edge>
    <edge id=":D_4" function="internal">
        <lane id=":D_4_0" index="0" speed="3.65" length="1.44" shape="314.65,326.65,-0.48 315.45,325.45,-0.48" />
    </edge>
    <edge id=":D_20" function="internal">
        <lane id=":D_20_0" index="0" speed="9.26" length="14.34" shape="315.36,321.69,-0.48 315.40,321.40,-0.48 317.65,317.65,-0.47 321.40,315.40,-0.47 326.65,314.65,-0.47" />
    </edge>
    <edge id=":D_21" function="internal">
        <lane id=":D_21_0" index="0" speed="3.65" length="3.23" shape="315.45,325.45,-0.48 316.25,325.05,-0.48 317.05,325.45,-0.48 317.85,326.65,-0.48" />
    </edge>
    <edge id=":D_5" function="internal">
        <lane id=":D_5_0" index="0" speed="6.51" length="9.03" shape="326.65,321.05,-0.47 324.20,321.40,-0.47 322.45,322.45,-0.47 321.40,324.20,-0.48 321.05,326.65,-0.48" />
    </edge>
    <edge id=":D_6" function="internal">
        <lane id=":D_6_0" index="0" speed="13.41" length="20.80" shape="326.65,321.05,-0.47 305.85,321.05,-0.48" />
        <lane id=":D_6_1" index="1" speed="13.41" length="20.80" shape="326.65,317.85,-0.47 305.85,317.85,-0.48" />
    </edge>
    <edge id=":D_8" function="internal">
        <lane id=":D_8_0" index="0" speed="9.26" length="5.01" shape="326.65,317.85,-0.47 321.69,317.14,-0.47" />
    </edge>
    <edge id=":D_9" function="internal">
        <lane id=":D_9_0" index="0" speed="3.65" length="1.44" shape="326.65,317.85,-0.47 325.45,317.05,-0.47" />
    </edge>
    <edge id=":D_22" function="internal">
        <lane id=":D_22_0" index="0" speed="9.26" length="14.34" shape="321.69,317.14,-0.47 321.40,317.10,-0.47 317.65,314.85,-0.47 315.40,311.10,-0.48 314.65,305.85,-0.48" />
    </edge>
    <edge id=":D_23" function="internal">
        <lane id=":D_23_0" index="0" speed="3.65" length="3.23" shape="325.45,317.05,-0.47 325.05,316.25,-0.47 325.45,315.45,-0.47 326.65,314.65,-0.47" />
    </edge>
    <edge id=":D_10" function="internal">
        <lane id=":D_10_0" index="0" speed="6.51" length="9.03" shape="321.05,305.85,-0.48 321.40,308.30,-0.48 322.45,310.05,-0.47 324.20,311.10,-0.47 326.65,311.45,-0.47" />
    </edge>
    <edge id=":D_11" function="internal">
        <lane id=":D_11_0" index="0" speed="13.41" length="20.80" shape="321.05,305.85,-0.48 321.05,326.65,-0.48" />
        <lane id=":D_11_1" index="1" speed="13.41" length="20.80" shape="317.85,305.85,-0.48 317.85,326.65,-0.48" />
    </edge>
    <edge id=":D_13" function="internal">
        <lane id=":D_13_0" index="0" speed="9.26" length="5.01" shape="317.85,305.85,-0.48 317.14,310.82,-0.48" />
    </edge>
    <edge id=":D_14" function="internal">
        <lane id=":D_14_0" index="0" speed="3.65" length="1.44" shape="317.85,305.85,-0.48 317.05,307.05,-0.48" />
    </edge>
    <edge id=":D_24" function="internal">
        <lane id=":D_24_0" index="0" speed="9.26" length="14.34" shape="317.14,310.82,-0.48 317.10,311.10,-0.48 314.85,314.85,-0.48 311.10,317.10,-0.48 305.85,317.85,-0.48" />
    </edge>
    <edge id=":D_25" function="internal">
        <lane id=":D_25_0" index="0" speed="3.65" length="3.23" shape="317.05,307.05,-0.48 316.25,307.45,-0.48 315.45,307.05,-0.48 314.65,305.85,-0.48" />
    </edge>
    <edge id=":D_15" function="internal">
        <lane id=":D_15_0" index="0" speed="6.51" length="9.03" shape="305.85,311.45,-0.48 308.30,311.10,-0.48 310.05,310.05,-0.48 311.10,308.30,-0.48 311.45,305.85,-0.48" />
    </edge>
    <edge id=":D_16" function="internal">
        <lane id=":D_16_0" index="0" speed="13.41" length="20.80" shape="305.85,311.45,-0.48 326.65,311.45,-0.47" />
        <lane id=":D_16_1" index="1" speed="13.41" length="20.80" shape="305.85,314.65,-0.48 326.65,314.65,-0.47" />
    </edge>
    <edge id=":D_18" function="internal">
        <lane id=":D_18_0" index="0" speed="9.26" length="5.01" shape="305.85,314.65,-0.48 310.82,315.36,-0.48" />
    </edge>
    <edge id=":D_19" function="internal">
        <lane id=":D_19_0" index="0" speed="3.65" length="1.44" shape="305.85,314.65,-0.48 307.05,315.45,-0.48" />
    </edge>
    <edge id=":D_26" function="internal">
        <lane id=":D_26_0" index="0" speed="9.26" length="14.34" shape="310.82,315.36,-0.48 311.10,315.40,-0.48 314.85,317.65,-0.48 317.10,321.40,-0.48 317.85,326.65,-0.48" />
    </edge>
    <edge id=":D_27" function="internal">
        <lane id=":D_27_0" index="0" speed="3.65" length="3.23" shape="307.05,315.45,-0.48 307.45,316.25,-0.48 307.05,317.05,-0.48 305.85,317.85,-0.48" />
    </edge>
    <edge id=":DA_0" function="internal">
        <lane id=":DA_0_0" index="0" speed="3.65" length="4.67" shape="314.65,-0.00,-0.48 315.45,-1.20,-0.48 316.25,-1.60,-0.48 317.05,-1.20,-0.48 317.85,-0.00,-0.48" />
    </edge>
    <edge id=":DB_0" function="internal">
        <lane id=":DB_0_0" index="0" speed="3.65" length="4.67" shape="-0.00,317.85,-0.48 -1.20,317.05,-0.48 -1.60,316.25,-0.48 -1.20,315.45,-0.48 -0.00,314.65,-0.48" />
    </edge>
    <edge id=":DC_0" function="internal">
        <lane id=":DC_0_0" index="0" speed="3.65" length="4.67" shape="317.85,632.51,-0.48 317.05,633.71,-0.48 316.25,634.11,-0.48 315.45,633.71,-0.48 314.65,632.51,-0.48" />
    </edge>
    <edge id=":TL_0" function="internal">
        <lane id=":TL_0_0" index="0" speed="7.33" length="11.73" shape="627.71,329.85,0.07 627.36,326.00,0.04 626.31,323.25,0.02 624.56,321.60,0.00 622.11,321.05,-0.02" />
    </edge>
    <edge id=":TL_1" function="internal">
        <lane id=":TL_1_0" index="0" speed="13.41" length="24.00" shape="627.71,329.85,0.07 627.71,305.85,0.04" />
        <lane id=":TL_1_1" index="1" speed="13.41" length="24.00" shape="630.91,329.85,0.07 630.91,305.85,0.04" />
    </edge>
    <edge id=":TL_3" function="internal">
        <lane id=":TL_3_0" index="0" speed="10.36" length="7.35" shape="630.91,329.85,0.07 631.86,323.20,0.07 632.18,322.66,0.07" />
    </edge>
    <edge id=":TL_16" function="internal">
        <lane id=":TL_16_0" index="0" speed="10.36" length="17.17" shape="632.18,322.66,0.07 634.71,318.45,0.07 639.46,315.60,0.07 646.11,314.65,0.07" />
    </edge>
    <edge id=":TL_4" function="internal">
        <lane id=":TL_4_0" index="0" speed="7.33" length="11.73" shape="646.11,324.25,0.07 642.26,324.60,0.07 639.51,325.65,0.07 637.86,327.40,0.07 637.31,329.85,0.07" />
    </edge>
    <edge id=":TL_5" function="internal">
        <lane id=":TL_5_0" index="0" speed="12.29" length="24.27" shape="646.11,324.25,0.07 638.66,323.75,0.04 633.32,322.65,0.02 628.37,321.55,0.01 622.11,321.05,-0.02" />
        <lane id=":TL_5_1" index="1" speed="12.29" length="24.27" shape="646.11,321.05,0.07 638.66,320.55,0.04 633.32,319.45,0.02 628.37,318.35,0.01 622.11,317.85,-0.02" />
    </edge>
    <edge id=":TL_7" function="internal">
        <lane id=":TL_7_0" index="0" speed="9.84" length="6.30" shape="646.11,317.85,0.07 639.85,317.15,0.06" />
    </edge>
    <edge id=":TL_17" function="internal">
        <lane id=":TL_17_0" index="0" speed="9.84" length="15.70" shape="639.85,317.15,0.06 639.46,317.10,0.06 634.71,314.85,0.05 631.86,311.10,0.05 630.91,305.85,0.04" />
    </edge>
    <edge id=":TL_8" function="internal">
        <lane id=":TL_8_0" index="0" speed="6.51" length="9.03" shape="640.51,305.85,0.04 640.86,308.30,0.05 641.91,310.05,0.05 643.66,311.10,0.06 646.11,311.45,0.07" />
    </edge>
    <edge id=":TL_9" function="internal">
        <lane id=":TL_9_0" index="0" speed="13.41" length="24.27" shape="640.51,305.85,0.04 640.01,313.30,0.05 638.91,318.64,0.06 637.81,323.59,0.06 637.31,329.85,0.07" />
        <lane id=":TL_9_1" index="1" speed="13.41" length="24.27" shape="637.31,305.85,0.04 636.81,313.30,0.05 635.71,318.64,0.06 634.61,323.59,0.06 634.11,329.85,0.07" />
    </edge>
    <edge id=":TL_11" function="internal">
        <lane id=":TL_11_0" index="0" speed="9.26" length="5.01" shape="634.11,305.85,0.04 633.40,310.82,0.02" />
    </edge>
    <edge id=":TL_18" function="internal">
        <lane id=":TL_18_0" index="0" speed="9.26" length="14.34" shape="633.40,310.82,0.02 633.36,311.10,0.02 631.11,314.85,0.01 627.36,317.10,-0.00 622.11,317.85,-0.02" />
    </edge>
    <edge id=":TL_12" function="internal">
        <lane id=":TL_12_0" index="0" speed="6.51" length="9.03" shape="622.11,311.45,-0.02 624.56,311.10,-0.00 626.31,310.05,0.01 627.36,308.30,0.02 627.71,305.85,0.04" />
    </edge>
    <edge id=":TL_13" function="internal">
        <lane id=":TL_13_0" index="0" speed="12.29" length="24.00" shape="622.11,311.45,-0.02 646.11,311.45,0.07" />
        <lane id=":TL_13_1" index="1" speed="12.29" length="24.00" shape="622.11,314.65,-0.02 646.11,314.65,0.07" />
    </edge>
    <edge id=":TL_15" function="internal">
        <lane id=":TL_15_0" index="0" speed="9.84" length="5.46" shape="622.11,314.65,-0.02 627.36,315.60,0.01 627.46,315.68,0.01" />
    </edge>
    <edge id=":TL_19" function="internal">
        <lane id=":TL_19_0" index="0" speed="9.84" length="16.53" shape="627.46,315.68,0.01 631.11,318.45,0.02 633.36,323.20,0.04 634.11,329.85,0.07" />
    </edge>

    <edge id="A2AA" from="A" to="AA" priority="-1">
        <lane id="A2AA_0" index="0" speed="13.41" length="308.52" shape="622.11,639.97,1.65 313.59,639.97,1.65" />
        <lane id="A2AA_1" index="1" speed="13.41" length="308.52" shape="622.11,636.77,1.65 313.59,636.77,1.65" />
    </edge>
    <edge id="A2AB" from="A" to="AB" priority="-1">
        <lane id="A2AB_0" index="0" speed="13.41" length="308.52" shape="637.31,645.57,1.65 637.31,954.09,1.65" />
        <lane id="A2AB_1" index="1" speed="13.41" length="308.52" shape="634.11,645.57,1.65 634.11,954.09,1.65" />
    </edge>
    <edge id="A2AC" from="A" to="AC" priority="-1">
        <lane id="A2AC_0" index="0" speed="13.41" length="308.52" shape="642.91,630.37,1.65 951.43,630.37,1.65" />
        <lane id="A2AC_1" index="1" speed="13.41" length="308.52" shape="642.91,633.57,1.65 951.43,633.57,1.65" />
    </edge>
    <edge id="A2TL" from="A" to="TL" priority="-1">
        <lane id="A2TL_0" index="0" speed="13.41" length="294.92" shape="627.71,624.77,1.60 627.71,329.85,0.07" />
        <lane id="A2TL_1" index="1" speed="13.41" length="294.92" shape="630.91,624.77,1.60 630.91,329.85,0.07" />
    </edge>
    <edge id="AA2A" from="AA" to="A" priority="-1">
        <lane id="AA2A_0" index="0" speed="13.41" length="308.52" shape="313.59,630.37,1.65 622.11,630.37,1.65" />
        <lane id="AA2A_1" index="1" speed="13.41" length="308.52" shape="313.59,633.57,1.65 622.11,633.57,1.65" />
    </edge>
    <edge id="AB2A" from="AB" to="A" priority="-1">
        <lane id="AB2A_0" index="0" speed="13.41" length="308.52" shape="627.71,954.09,1.65 627.71,645.57,1.65" />