<net xmlns:xsi="http://www.w3.org/2001/XMLSchema-instance" version="1.9" junctionCornerDetail="5" limitTurnSpeed="5.50" xsi:noNamespaceSchemaLocation="http://sumo.dlr.de/xsd/net_file.xsd">

    <location netOffset="1013.41,596.18" convBoundary="0.00,0.00,1863.38,1102.88" origBoundary="-1013.41,-596.18,849.97,506.71" projParameter="!" />

    <edge id=":A_0" function="internal">
        <lane id=":A_0_0" index="0" speed="7.33" length="11.73" shape="1005.41,843.76,2.50 1005.06,839.91,2.50 1004.01,837.16,2.50 1002.26,835.51,2.50 999.81,834.96,2.50" />
    </edge>
    <edge id=":A_1" function="internal">
        <lane id=":A_1_0" index="0" speed="11.18" length="27.20" shape="1005.41,843.76,2.50 1005.41,816.56,2.35" />
        <lane id=":A_1_1" index="1" speed="11.18" length="27.20" shape="1008.61,843.76,2.50 1008.61,816.56,2.35" />
        <lane id=":A_1_2" index="2" speed="11.18" length="27.20" shape="1011.81,843.76,2.50 1011.81,816.56,2.35" />
    </edge>
    <edge id=":A_4" function="internal">
        <lane id=":A_4_0" index="0" speed="9.84" length="6.30" shape="1011.81,843.76,2.50 1012.52,837.50,2.50" />
    </edge>
    <edge id=":A_5" function="internal">
        <lane id=":A_5_0" index="0" speed="3.65" length="1.44" shape="1011.81,843.76,2.50 1012.61,842.56,2.50" />
    </edge>
    <edge id=":A_21" function="internal">
        <lane id=":A_21_0" index="0" speed="9.84" length="15.70" shape="1012.52,837.50,2.50 1012.56,837.11,2.50 1014.81,832.36,2.50 1018.56,829.51,2.50 1023.81,828.56,2.50" />
    </edge>
    <edge id=":A_22" function="internal">
        <lane id=":A_22_0" index="0" speed="3.65" length="3.23" shape="1012.61,842.56,2.50 1013.41,842.16,2.50 1014.21,842.56,2.50 1015.01,843.76,2.50" />
    </edge>
    <edge id=":A_6" function="internal">
        <lane id=":A_6_0" index="0" speed="6.51" length="9.03" shape="1023.81,838.16,2.50 1021.36,838.51,2.50 1019.61,839.56,2.50 1018.56,841.31,2.50 1018.21,843.76,2.50" />
    </edge>
    <edge id=":A_7" function="internal">
        <lane id=":A_7_0" index="0" speed="11.18" length="24.27" shape="1023.81,838.16,2.50 1016.36,837.66,2.50 1011.02,836.56,2.50 1006.08,835.46,2.50 999.81,834.96,2.50" />
        <lane id=":A_7_1" index="1" speed="11.18" length="24.27" shape="1023.81,834.96,2.50 1016.36,834.46,2.50 1011.02,833.36,2.50 1006.08,832.26,2.50 999.81,831.76,2.50" />
    </edge>
    <edge id=":A_9" function="internal">
        <lane id=":A_9_0" index="0" speed="9.84" length="5.46" shape="1023.81,831.76,2.50 1018.56,830.81,2.46 1018.46,830.73,2.46" />
    </edge>
    <edge id=":A_10" function="internal">
        <lane id=":A_10_0" index="0" speed="3.65" length="1.44" shape="1023.81,831.76,2.50 1022.61,830.96,2.50" />
    </edge>
    <edge id=":A_23" function="internal">
        <lane id=":A_23_0" index="0" speed="9.84" length="16.53" shape="1018.46,830.73,2.46 1014.81,827.96,2.43 1012.56,823.21,2.40 1011.81,816.56,2.35" />
    </edge>
    <edge id=":A_24" function="internal">
        <lane id=":A_24_0" index="0" speed="3.65" length="3.23" shape="1022.61,830.96,2.50 1022.21,830.16,2.50 1022.61,829.36,2.50 1023.81,828.56,2.50" />
    </edge>
    <edge id=":A_11" function="internal">
        <lane id=":A_11_0" index="0" speed="7.33" length="11.73" shape="1018.21,816.56,2.35 1018.56,820.41,2.40 1019.61,823.16,2.44 1021.36,824.81,2.47 1023.81,825.36,2.50" />
    </edge>
    <edge id=":A_12" function="internal">
        <lane id=":A_12_0" index="0" speed="11.18" length="27.20" shape="1018.21,816.56,2.35 1018.21,843.76,2.50" />
        <lane id=":A_12_1" index="1" speed="11.18" length="27.20" shape="1015.01,816.56,2.35 1015.01,843.76,2.50" />
    </edge>
    <edge id=":A_14" function="internal">
        <lane id=":A_14_0" index="0" speed="10.36" length="5.01" shape="1015.01,816.56,2.35 1014.30,821.52,2.38" />
    </edge>
    <edge id=":A_15" function="internal">
        <lane id=":A_15_0" index="0" speed="3.65" length="1.44" shape="1015.01,816.56,2.35 1014.21,817.76,2.35" />
    </edge>
    <edge id=":A_25" function="internal">
        <lane id=":A_25_0" index="0" speed="10.36" length="19.50" shape="1014.30,821.52,2.38 1014.06,823.21,2.39 1011.21,827.96,2.42 1006.46,830.81,2.46 999.81,831.76,2.50" />
    </edge>
    <edge id=":A_26" function="internal">
        <lane id=":A_26_0" index="0" speed="3.65" length="3.23" shape="1014.21,817.76,2.35 1013.41,818.16,2.35 1012.61,817.76,2.35 1011.81,816.56,2.35" />
    </edge>
    <edge id=":A_16" function="internal">
        <lane id=":A_16_0" index="0" speed="6.51" length="9.03" shape="999.81,822.16,2.50 1002.26,821.81,2.46 1004.01,820.76,2.42 1005.06,819.01,2.39 1005.41,816.56,2.35" />
    </edge>
    <edge id=":A_17" function="internal">
        <lane id=":A_17_0" index="0" speed="11.18" length="24.27" shape="999.81,822.16,2.50 1007.26,822.66,2.50 1012.60,823.76,2.50 1017.54,824.86,2.50 1023.81,825.36,2.50" />
        <lane id=":A_17_1" index="1" speed="11.18" length="24.27" shape="999.81,825.36,2.50 1007.26,825.86,2.50 1012.60,826.96,2.50 1017.54,828.06,2.50 1023.81,828.56,2.50" />
    </edge>
    <edge id=":A_19" function="internal">
        <lane id=":A_19_0" index="0" speed="10.36" length="7.35" shape="999.81,828.56,2.50 1006.46,829.51,2.50 1007.00,829.83,2.50" />
    </edge>
    <edge id=":A_20" function="internal">
        <lane id=":A_20_0" index="0" speed="3.65" length="1.44" shape="999.81,828.56,2.50 1001.01,829.36,2.50" />
    </edge>
    <edge id=":A_27" function="internal">
        <lane id=":A_27_0" index="0" speed="10.36" length="17.17" shape="1007.00,829.83,2.50 1011.21,832.36,2.50 1014.06,837.11,2.50 1015.01,843.76,2.50" />
    </edge>
    <edge id=":A_28" function="internal">
        <lane id=":A_28_0" index="0" speed="3.65" length="3.23" shape="1001.01,829.36,2.50 1001.41,830.16,2.50 1001.01,830.96,2.50 999.81,831.76,2.50" />
    </edge>
    <edge id=":AA_0" function="internal">
        <lane id=":AA_0_0" index="0" speed="3.65" length="4.67" shape="779.43,831.76,2.50 778.23,830.96,2.50 777.83,830.16,2.50 778.23,829.36,2.50 779.43,828.56,2.50" />
    </edge>
    <edge id=":AB_0" function="internal">
        <lane id=":AB_0_0" index="0" speed="3.65" length="4.67" shape="1015.01,1064.14,2.50 1014.21,1065.34,2.50 1013.41,1065.74,2.50 1012.61,1065.34,2.50 1011.81,1064.14,2.50" />
    </edge>
    <edge id=":AC_0" function="internal">
        <lane id=":AC_0_0" index="0" speed="3.65" length="4.67" shape="1247.39,828.56,2.50 1248.59,829.36,2.50 1248.99,830.16,2.50 1248.59,830.96,2.50 1247.39,831.76,2.50" />
    </edge>
    <edge id=":B_0" function="internal">
        <lane id=":B_0_0" index="0" speed="6.51" length="9.03" shape="1433.60,606.58,-1.30 1433.25,604.13,-1.29 1432.20,602.38,-1.28 1430.45,601.33,-1.27 1428.00,600.98,-1.26" />
    </edge>
    <edge id=":B_1" function="internal">
        <lane id=":B_1_0" index="0" speed="11.18" length="20.80" shape="1433.60,606.58,-1.30 1433.60,585.78,-1.30" />
        <lane id=":B_1_1" index="1" speed="11.18" length="20.80" shape="1436.80,606.58,-1.30 1436.80,585.78,-1.30" />
    </edge>
    <edge id=":B_3" function="internal">
        <lane id=":B_3_0" index="0" speed="9.26" length="5.01" shape="1436.80,606.58,-1.30 1437.51,601.61,-1.30" />
    </edge>
    <edge id=":B_4" function="internal">
        <lane id=":B_4_0" index="0" speed="3.65" length="1.44" shape="1436.80,606.58,-1.30 1437.60,605.38,-1.30" />
    </edge>
    <edge id=":B_20" function="internal">
        <lane id=":B_20_0" index="0" speed="9.26" length="14.34" shape="1437.51,601.61,-1.30 1437.55,601.33,-1.30 1439.80,597.58,-1.30 1443.55,595.33,-1.30 1448.80,594.58,-1.30" />
    </edge>
    <edge id=":B_21" function="internal">
        <lane id=":B_21_0" index="0" speed="3.65" length="3.23" shape="1437.60,605.38,-1.30 1438.40,604.98,-1.30 1439.20,605.38,-1.30 1440.00,606.58,-1.30" />
    </edge>
    <edge id=":B_5" function="internal">
        <lane id=":B_5_0" index="0" speed="6.51" length="9.03" shape="1448.80,600.98,-1.30 1446.35,601.33,-1.30 1444.60,602.38,-1.30 1443.55,604.13,-1.30 1443.20,606.58,-1.30" />
    </edge>
    <edge id=":B_6" function="internal">
        <lane id=":B_6_0" index="0" speed="11.18" length="20.80" shape="1448.80,600.98,-1.30 1428.00,600.98,-1.26" />
        <lane id=":B_6_1" index="1" speed="11.18" length="20.80" shape="1448.80,597.78,-1.30 1428.00,597.78,-1.26" />
    </edge>
    <edge id=":B_8" function="internal">
        <lane id=":B_8_0" index="0" speed="9.26" length="5.01" shape="1448.80,597.78,-1.30 1443.83,597.07,-1.30" />
    </edge>
    <edge id=":B_9" function="internal">
        <lane id=":B_9_0" index="0" speed="3.65" length="1.44" shape="1448.80,597.78,-1.30 1447.60,596.98,-1.30" />
    </edge>
    <edge id=":B_22" function="internal">
        <lane id=":B_22_0" index="0" speed="9.26" length="14.34" shape="1443.83,597.07,-1.30 1443.55,597.03,-1.30 1439.80,594.78,-1.30 1437.55,591.03,-1.30 1436.80,585.78,-1.30" />
    </edge>
    <edge id=":B_23" function="internal">
        <lane id=":B_23_0" index="0" speed="3.65" length="3.23" shape="1447.60,596.98,-1.30 1447.20,596.18,-1.30 1447.60,595.38,-1.30 1448.80,594.58,-1.30" />
    </edge>
    <edge id=":B_10" function="internal">
        <lane id=":B_10_0" index="0" speed="6.51" length="9.03" shape="1443.20,585.78,-1.30 1443.55,588.23,-1.30 1444.60,589.98,-1.30 1446.35,591.03,-1.30 1448.80,591.38,-1.30" />
    </edge>
    <edge id=":B_11" function="internal">
        <lane id=":B_11_0" index="0" speed="11.18" length="20.80" shape="1443.20,585.78,-1.30 1443.20,606.58,-1.30" />
        <lane id=":B_11_1" index="1" speed="11.18" length="20.80" shape="1440.00,585.78,-1.30 1440.00,606.58,-1.30" />
    </edge>
    <edge id=":B_13" function="internal">
        <lane id=":B_13_0" index="0" speed="9.26" length="5.01" shape="1440.00,585.78,-1.30 1439.29,590.74,-1.29" />
    </edge>
    <edge id=":B_14" function="internal">
        <lane id=":B_14_0" index="0" speed="3.65" length="1.44" shape="1440.00,585.78,-1.30 1439.20,586.98,-1.30" />
    </edge>
    <edge id=":B_24" function="internal">
        <lane id=":B_24_0" index="0" speed="9.26" length="14.34" shape="1439.29,590.74,-1.29 1439.25,591.03,-1.29 1437.00,594.78,-1.28 1433.25,597.03,-1.27 1428.00,597.78,-1.26" />
    </edge>
    <edge id=":B_25" function="internal">
        <lane id=":B_25_0" index="0" speed="3.65" length="3.23" shape="1439.20,586.98,-1.30 1438.40,587.38,-1.30 1437.60,586.98,-1.30 1436.80,585.78,-1.30" />
    </edge>
    <edge id=":B_15" function="internal">
        <lane id=":B_15_0" index="0" speed="6.51" length="9.03" shape="1428.00,591.38,-1.26 1430.45,591.03,-1.27 1432.20,589.98,-1.28 1433.25,588.23,-1.29 1433.60,585.78,-1.30" />
    </edge>
    <edge id=":B_16" function="internal">
        <lane id=":B_16_0" index="0" speed="11.18" length="20.80" shape="1428.00,591.38,-1.26 1448.80,591.38,-1.30" />
        <lane id=":B_16_1" index="1" speed="11.18" length="20.80" shape="1428.00,594.58,-1.26 1448.80,594.58,-1.30" />
    </edge>
    <edge id=":B_18" function="internal">
        <lane id=":B_18_0" index="0" speed="9.26" length="5.01" shape="1428.00,594.58,-1.26 1432.96,595.29,-1.27" />
    </edge>
    <edge id=":B_19" function="internal">
        <lane id=":B_19_0" index="0" speed="3.65" length="1.44" shape="1428.00,594.58,-1.26 1429.20,595.38,-1.26" />
    </edge>
    <edge id=":B_26" function="internal">
        <lane id=":B_26_0" index="0" speed="9.26" length="14.34" shape="1432.96,595.29,-1.27 1433.25,595.33,-1.27 1437.00,597.58,-1.28 1439.25,601.33,-1.29 1440.00,606.58,-1.30" />
    </edge>
    <edge id=":B_27" function="internal">
        <lane id=":B_27_0" index="0" speed="3.65" length="3.23" shape="1429.20,595.38,-1.26 1429.60,596.18,-1.26 1429.20,596.98,-1.26 1428.00,597.78,-1.26" />
    </edge>
    <edge id=":BA_0" function="internal">
        <lane id=":BA_0_0" index="0" speed="3.65" length="4.67" shape="1440.00,1021.16,-1.30 1439.20,1022.36,-1.30 1438.40,1022.76,-1.30 1437.60,1022.36,-1.30 1436.80,1021.16,-1.30" />
    </edge>
    <edge id=":BB_0" function="internal">
        <lane id=":BB_0_0" index="0" speed="3.65" length="4.67" shape="1863.38,594.58,-1.30 1864.58,595.38,-1.30 1864.98,596.18,-1.30 1864.58,596.98,-1.30 1863.38,597.78,-1.30" />
    </edge>
    <edge id=":BC_0" function="internal">
        <lane id=":BC_0_0" index="0" speed="3.65" length="4.67" shape="1436.80,171.19,-1.30 1437.60,169.99,-1.30 1438.40,169.59,-1.30 1439.20,169.99,-1.30 1440.00,171.19,-1.30" />
    </edge>
    <edge id=":C_0" function="internal">
        <lane id=":C_0_0" index="0" speed="6.51" length="9.03" shape="1008.61,308.49,-2.19 1008.26,306.04,-2.21 1007.21,304.29,-2.23 1005.46,303.24,-2.25 1003.01,302.89,-2.27" />
    </edge>
    <edge id=":C_1" function="internal">
        <lane id=":C_1_0" index="0" speed="13.41" length="20.80" shape="1008.61,308.49,-2.19 1008.61,287.69,-2.27" />
        <lane id=":C_1_1" index="1" speed="13.41" length="20.80" shape="1011.81,308.49,-2.19 1011.81,287.69,-2.27" />
    </edge>
    <edge id=":C_3" function="internal">
        <lane id=":C_3_0" index="0" speed="9.26" length="5.01" shape="1011.81,308.49,-2.19 1012.52,303.53,-2.21" />
    </edge>
    <edge id=":C_4" function="internal">
        <lane id=":C_4_0" index="0" speed="3.65" length="1.44" shape="1011.81,308.49,-2.19 1012.61,307.29,-2.19" />
    </edge>
    <edge id=":C_20" function="internal">
        <lane id=":C_20_0" index="0" speed="9.26" length="14.34" shape="1012.52,303.53,-2.21 1012.56,303.24,-2.21 1014.81,299.49,-2.23 1018.56,297.24,-2.25 1023.81,296.49,-2.27" />
    </edge>
    <edge id=":C_21" function="internal">
        <lane id=":C_21_0" index="0" speed="3.65" length="3.23" shape="1012.61,307.29,-2.19 1013.41,306.89,-2.19 1014.21,307.29,-2.19 1015.01,308.49,-2.19" />
    </edge>
    <edge id=":C_5" function="internal">
        <lane id=":C_5_0" index="0" speed="6.51" length="9.03" shape="1023.81,302.89,-2.27 1021.36,303.24,-2.25 1019.61,304.29,-2.23 1018.56,306.04,-2.21 1018.21,308.49,-2.19" />
    </edge>
    <edge id=":C_6" function="internal">
        <lane id=":C_6_0" index="0" speed="13.41" length="20.80" shape="1023.81,302.89,-2.27 1003.01,302.89,-2.27" />
        <lane id=":C_6_1" index="1" speed="13.41" length="20.80" shape="1023.81,299.69,-2.27 1003.01,299.69,-2.27" />
    </edge>
    <edge id=":C_8" function="internal">
        <lane id=":C_8_0" index="0" speed="9.26" length="5.01" shape="1023.81,299.69,-2.27 1018.85,298.98,-2.27" />
    </edge>
    <edge id=":C_9" function="internal">
        <lane id=":C_9_0" index="0" speed="3.65" length="1.44" shape="1023.81,299.69,-2.27 1022.61,298.89,-2.27" />
    </edge>
    <edge id=":C_22" function="internal">
        <lane id=":C_22_0" index="0" speed="9.26" length="14.34" shape="1018.85,298.98,-2.27 1018.56,298.94,-2.27 1014.81,296.69,-2.27 1012.56,292.94,-2.27 1011.81,287.69,-2.27" />
    </edge>
    <edge id=":C_23" function="internal">
        <lane id=":C_23_0" index="0" speed="3.65" length="3.23" shape="1022.61,298.89,-2.27 1022.21,298.09,-2.27 1022.61,297.29,-2.27 1023.81,296.49,-2.27" />
    </edge>
    <edge id=":C_10" function="internal">
        <lane id=":C_10_0" index="0" speed="6.51" length="9.03" shape="1018.21,287.69,-2.27 1018.56,290.14,-2.27 1019.61,291.89,-2.27 1021.36,292.94,-2.27 1023.81,293.29,-2.27" />
    </edge>
    <edge id=":C_11" function="internal">
        <lane id=":C_11_0" index="0" speed="13.41" length="20.80" shape="1018.21,287.69,-2.27 1018.21,308.49,-2.19" />
        <lane id=":C_11_1" index="1" speed="13.41" length="20.80" shape="1015.01,287.69,-2.27 1015.01,308.49,-2.19" />
    </edge>
    <edge id=":C_13" function="internal">
        <lane id=":C_13_0" index="0" speed="9.26" length="5.01" shape="1015.01,287.69,-2.27 1014.30,292.65,-2.27" />
    </edge>
    <edge id=":C_14" function="internal">
        <lane id=":C_14_0" index="0" speed="3.65" length="1.44" shape="1015.01,287.69,-2.27 1014.21,288.89,-2.27" />
    </edge>
    <edge id=":C_24" function="internal">
        <lane id=":C_24_0" index="0" speed="9.26" length="14.34" shape="1014.30,292.65,-2.27 1014.26,292.94,-2.27 1012.01,296.69,-2.27 1008.26,298.94,-2.27 1003.01,299.69,-2.27" />
    </edge>
    <edge id=":C_25" function="internal">
        <lane id=":C_25_0" index="0" speed="3.65" length="3.23" shape="1014.21,288.89,-2.27 1013.41,289.29,-2.27 1012.61,288.89,-2.27 1011.81,287.69,-2.27" />
    </edge>
    <edge id=":C_15" function="internal">
        <lane id=":C_15_0" index="0" speed="6.51" length="9.03" shape="1003.01,293.29,-2.27 1005.46,292.94,-2.27 1007.21,291.89,-2.27 1008.26,290.14,-2.27 1008.61,287.69,-2.27" />
    </edge>
    <edge id=":C_16" function="internal">
        <lane id=":C_16_0" index="0" speed="13.41" length="20.80" shape="1003.01,293.29,-2.27 1023.81,293.29,-2.27" />
        <lane id=":C_16_1" index="1" speed="13.41" length="20.80" shape="1003.01,296.49,-2.27 1023.81,296.49,-2.27" />
    </edge>
    <edge id=":C_18" function="internal">
        <lane id=":C_18_0" index="0" speed="9.26" length="5.01" shape="1003.01,296.49,-2.27 1007.97,297.20,-2.25" />
    </edge>
    <edge id=":C_19" function="internal">
        <lane id=":C_19_0" index="0" speed="3.65" length="1.44" shape="1003.01,296.49,-2.27 1004.21,297.29,-2.27" />
    </edge>
    <edge id=":C_26" function="internal">
        <lane id=":C_26_0" index="0" speed="9.26" length="14.34" shape="1007.97,297.20,-2.25 1008.26,297.24,-2.25 1012.01,299.49,-2.23 1014.26,303.24,-2.21 1015.01,308.49,-2.19" />
    </edge>
    <edge id=":C_27" function="internal">
        <lane id=":C_27_0" index="0" speed="3.65" length="3.23" shape="1004.21,297.29,-2.27 1004.61,298.09,-2.27 1004.21,298.89,-2.27 1003.01,299.69,-2.27" />
    </edge>
    <edge id=":CA_0" function="internal">
        <lane id=":CA_0_0" index="0" speed="3.65" length="4.67" shape="1311.50,296.49,-2.27 1312.70,297.29,-2.27 1313.10,298.09,-2.27 1312.70,298.89,-2.27 1311.50,299.69,-2.27" />
    </edge>
    <edge id=":CB_0" function="internal">
        <lane id=":CB_0_0" index="0" speed="3.65" length="4.67" shape="1011.81,-0.00,-2.27 1012.61,-1.20,-2.27 1013.41,-1.60,-2.27 1014.21,-1.20,-2.27 1015.01,-0.00,-2.27" />
    </edge>
    <edge id=":CC_0" function="internal">
        <lane id=":CC_0_0" index="0" speed="3.65" length="4.67" shape="715.32,299.69,-2.27 714.12,298.89,-2.27 713.72,298.09,-2.27 714.12,297.29,-2.27 715.32,296.49,-2.27" />
    </edge>
    <edge id=":D_0" function="internal">
        <lane id=":D_0_0" index="0" speed="6.51" length="9.03" shape="501.91,606.58,-1.08 501.56,604.13,-1.08 500.51,602.38,-1.08 498.76,601.33,-1.08 496.31,600.98,-1.08" />
    </edge>
    <edge id=":D_1" function="internal">
        <lane id=":D_1_0" index="0" speed="11.18" length="20.80" shape="501.91,606.58,-1.08 501.91,585.78,-1.08" />
        <lane id=":D_1_1" index="1" speed="11.18" length="20.80" shape="505.11,606.58,-1.08 505.11,585.78,-1.08" />
    </edge>
    <edge id=":D_3" function="internal">
        <lane id=":D_3_0" index="0" speed="9.26" length="5.01" shape="505.11,606.58,-1.08 505.81,601.61,-1.08" />
    </edge>
    <edge id=":D_4" function="internal">
        <lane id=":D_4_0" index="0" speed="3.65" length="1.44" shape="505.11,606.58,-1.08 505.91,605.38,-1.08" />
    </edge>
    <edge id=":D_20" function="internal">
        <lane id=":D_20_0" index="0" speed="9.26" length="14.34" shape="505.81,601.61,-1.08 505.86,601.33,-1.08 508.11,597.58,-1.07 511.86,595.33,-1.06 517.11,594.58,-1.06" />
    </edge>
    <edge id=":D_21" function="internal">
        <lane id=":D_21_0" index="0" speed="3.65" length="3.23" shape="505.91,605.38,-1.08 506.71,604.98,-1.08 507.51,605.38,-1.08 508.31,606.58,-1.08" />
    </edge>
    <edge id=":D_5" function="internal">
        <lane id=":D_5_0" index="0" speed="6.51" length="9.03" shape="517.11,600.98,-1.06 514.66,601.33,-1.06 512.91,602.38,-1.07 511.86,604.13,-1.08 511.51,606.58,-1.08" />
    </edge>
    <edge id=":D_6" function="internal">
        <lane id=":D_6_0" index="0" speed="11.18" length="20.80" shape="517.11,600.98,-1.06 496.31,600.98,-1.08" />
        <lane id=":D_6_1" index="1" speed="11.18" length="20.80" shape="517.11,597.78,-1.06 496.31,597.78,-1.08" />
    </edge>
    <edge id=":D_8" function="internal">
        <lane id=":D_8_0" index="0" speed="9.26" length="5.01" shape="517.11,597.78,-1.06 512.14,597.07,-1.06" />
    </edge>
    <edge id=":D_9" function="internal">
        <lane id=":D_9_0" index="0" speed="3.65" length="1.44" shape="517.11,597.78,-1.06 515.91,596.98,-1.06" />
    </edge>
    <edge id=":D_22" function="internal">
        <lane id=":D_22_0" index="0" speed="9.26" length="14.34" shape="512.14,597.07,-1.06 511.86,597.03,-1.06 508.11,594.78,-1.07 505.86,591.03,-1.08 505.11,585.78,-1.08" />
    </edge>
    <edge id=":D_23" function="internal">
        <lane id=":D_23_0" index="0" speed="3.65" length="3.23" shape="515.91,596.98,-1.06 515.51,596.18,-1.06 515.91,595.38,-1.06 517.11,594.58,-1.06" />
    </edge>
    <edge id=":D_10" function="internal">
        <lane id=":D_10_0" index="0" speed="6.51" length="9.03" shape="511.51,585.78,-1.08 511.86,588.23,-1.08 512.91,589.98,-1.07 514.66,591.03,-1.06 517.11,591.38,-1.06" />
    </edge>
    <edge id=":D_11" function="internal">
        <lane id=":D_11_0" index="0" speed="11.18" length="20.80" shape="511.51,585.78,-1.08 511.51,606.58,-1.08" />
        <lane id=":D_11_1" index="1" speed="11.18" length="20.80" shape="508.31,585.78,-1.08 508.31,606.58,-1.08" />
    </edge>
    <edge id=":D_13" function="internal">
        <lane id=":D_13_0" index="0" speed="9.26" length="5.01" shape="508.31,585.78,-1.08 507.60,590.74,-1.08" />
    </edge>
    <edge id=":D_14" function="internal">
        <lane id=":D_14_0" index="0" speed="3.65" length="1.44" shape="508.31,585.78,-1.08 507.51,586.98,-1.08" />
    </edge>
    <edge id=":D_24" function="internal">
        <lane id=":D_24_0" index="0" speed="9.26" length="14.34" shape="507.60,590.74,-1.08 507.56,591.03,-1.08 505.31,594.78,-1.08 501.56,597.03,-1.08 496.31,597.78,-1.08" />
    </edge>
    <edge id=":D_25" function="internal">
        <lane id=":D_25_0" index="0" speed="3.65" length="3.23" shape="507.51,586.98,-1.08 506.71,587.38,-1.08 505.91,586.98,-1.08 505.11,585.78,-1.08" />
    </edge>
    <edge id=":D_15" function="internal">
        <lane id=":D_15_0" index="0" speed="6.51" length="9.03" shape="496.31,591.38,-1.08 498.76,591.03,-1.08 500.51,589.98,-1.08 501.56,588.23,-1.08 501.91,585.78,-1.08" />
    </edge>
    <edge id=":D_16" function="internal">
        <lane id=":D_16_0" index="0" speed="11.18" length="20.80" shape="496.31,591.38,-1.08 517.11,591.38,-1.06" />
        <lane id=":D_16_1" index="1" speed="11.18" length="20.80" shape="496.31,594.58,-1.08 517.11,594.58,-1.06" />
    </edge>
    <edge id=":D_18" function="internal">
        <lane id=":D_18_0" index="0" speed="9.26" length="5.01" shape="496.31,594.58,-1.08 501.27,595.29,-1.08" />
    </edge>
    <edge id=":D_19" function="internal">
        <lane id=":D_19_0" index="0" speed="3.65" length="1.44" shape="496.31,594.58,-1.08 497.51,595.38,-1.08" />
    </edge>
    <edge id=":D_26" function="internal">
        <lane id=":D_26_0" index="0" speed="9.26" length="14.34" shape="501.27,595.29,-1.08 501.56,595.33,-1.08 505.31,597.58,-1.08 507.56,601.33,-1.08 508.31,606.58,-1.08" />
    </edge>
    <edge id=":D_27" function="internal">
        <lane id=":D_27_0" index="0" speed="3.65" length="3.23" shape="497.51,595.38,-1.08 497.91,596.18,-1.08 497.51,596.98,-1.08 496.31,597.78,-1.08" />
    </edge>
    <edge id=":DA_0" function="internal">
        <lane id=":DA_0_0" index="0" speed="3.65" length="4.67" shape="505.11,89.47,-1.08 505.91,88.27,-1.08 506.71,87.87,-1.08 507.51,88.27,-1.08 508.31,89.47,-1.08" />
    </edge>
    <edge id=":DB_0" function="internal">
        <lane id=":DB_0_0" index="0" speed="3.65" length="4.67" shape="0.00,597.78,-1.08 -1.20,596.98,-1.08 -1.60,596.18,-1.08 -1.20,595.38,-1.08 0.00,594.58,-1.08" />
    </edge>
    <edge id=":DC_0" function="internal">
        <lane id=":DC_0_0" index="0" speed="3.65" length="4.67" shape="508.31,1102.88,-1.08 507.51,1104.08,-1.08 506.71,1104.48,-1.08 505.91,1104.08,-1.08 505.11,1102.88,-1.08" />
    </edge>
    <edge id=":D_intern_0" function="internal">
        <lane id=":D_intern_0_0" index="0" speed="11.18" length="8.54" shape="959.41,591.38,-0.12 961.87,590.88,-0.11 963.41,589.78,-0.11 964.95,588.68,-0.10 967.41,588.18,-0.10" />
        <lane id=":D_intern_0_1" index="1" speed="11.18" length="8.54" shape="959.41,594.58,-0.12 961.87,594.08,-0.11 963.41,592.98,-0.11 964.95,591.88,-0.10 967.41,591.38,-0.10" />
        <lane id=":D_intern_0_2" index="2" speed="11.18" length="8.54" shape="959.41,594.58,-0.12 967.41,594.58,-0.10" />
    </edge>
    <edge id=":TL_0" function="internal">
        <lane id=":TL_0_0" index="0" speed="6.51" length="9.03" shape="1005.41,606.58,0.11 1005.06,604.13,0.07 1004.01,602.38,0.04 1002.26,601.33,0.01 999.81,600.98,-0.03" />
    </edge>
    <edge id=":TL_1" function="internal">
        <lane id=":TL_1_0" index="0" speed="12.29" length="24.18" shape="1005.41,606.58,0.11 1005.91,599.13,0.04 1007.01,593.79,-0.00 1008.11,588.84,-0.05 1008.61,582.58,-0.10" />
        <lane id=":TL_1_1" index="1" speed="12.29" length="24.18" shape="1008.61,606.58,0.11 1009.11,599.13,0.04 1010.21,593.79,-0.00 1011.31,588.84,-0.05 1011.81,582.58,-0.10" />
        <lane id=":TL_1_2" index="2" speed="12.29" length="24.18" shape="1011.81,606.58,0.11 1011.81,582.58,-0.10" />
    </edge>
    <edge id=":TL_4" function="internal">
        <lane id=":TL_4_0" index="0" speed="6.51" length="9.03" shape="1023.81,600.98,-0.03 1021.36,601.33,0.01 1019.61,602.38,0.04 1018.56,604.13,0.07 1018.21,606.58,0.11" />
    </edge>
    <edge id=":TL_5" function="internal">
        <lane id=":TL_5_0" index="0" speed="11.18" length="24.00" shape="1023.81,600.98,-0.03 999.81,600.98,-0.03" />
        <lane id=":TL_5_1" index="1" speed="11.18" length="24.00" shape="1023.81,597.78,-0.03 999.81,597.78,-0.03" />
    </edge>
    <edge id=":TL_7" function="internal">
        <lane id=":TL_7_0" index="0" speed="9.84" length="5.46" shape="1023.81,597.78,-0.03 1018.56,596.83,-0.05 1018.46,596.75,-0.05" />
    </edge>
    <edge id=":TL_16" function="internal">
        <lane id=":TL_16_0" index="0" speed="9.84" length="16.53" shape="1018.46,596.75,-0.05 1014.81,593.98,-0.06 1012.56,589.23,-0.08 1011.81,582.58,-0.10" />
    </edge>
    <edge id=":TL_8" function="internal">
        <lane id=":TL_8_0" index="0" speed="7.33" length="11.73" shape="1018.21,582.58,-0.10 1018.56,586.43,-0.08 1019.61,589.18,-0.06 1021.36,590.83,-0.05 1023.81,591.38,-0.03" />
    </edge>
    <edge id=":TL_9" function="internal">
        <lane id=":TL_9_0" index="0" speed="12.29" length="24.00" shape="1018.21,582.58,-0.10 1018.21,606.58,0.11" />
        <lane id=":TL_9_1" index="1" speed="12.29" length="24.00" shape="1015.01,582.58,-0.10 1015.01,606.58,0.11" />
    </edge>
    <edge id=":TL_11" function="internal">
        <lane id=":TL_11_0" index="0" speed="10.36" length="5.01" shape="1015.01,582.58,-0.10 1014.30,587.54,-0.09" />
    </edge>
    <edge id=":TL_17" function="internal">
        <lane id=":TL_17_0" index="0" speed="10.36" length="19.50" shape="1014.30,587.54,-0.09 1014.06,589.23,-0.08 1011.21,593.98,-0.07 1006.46,596.83,-0.05 999.81,597.78,-0.03" />
    </edge>
    <edge id=":TL_12" function="internal">
        <lane id=":TL_12_0" index="0" speed="7.33" length="11.73" shape="999.81,588.18,-0.03 1003.66,587.83,-0.05 1006.41,586.78,-0.07 1008.06,585.03,-0.09 1008.61,582.58,-0.10" />
    </edge>
    <edge id=":TL_13" function="internal">
        <lane id=":TL_13_0" index="0" speed="11.18" length="24.27" shape="999.81,588.18,-0.03 1007.26,588.68,-0.03 1012.60,589.78,-0.03 1017.54,590.88,-0.03 1023.81,591.38,-0.03" />
        <lane id=":TL_13_1" index="1" speed="11.18" length="24.27" shape="999.81,591.38,-0.03 1007.26,591.88,-0.03 1012.60,592.98,-0.03 1017.54,594.08,-0.03 1023.81,594.58,-0.03" />
    </edge>
    <edge id=":TL_15" function="internal">
        <lane id=":TL_15_0" index="0" speed="9.84" length="6.30" shape="999.81,594.58,-0.03 1006.07,595.28,0.01" />
    </edge>
    <edge id=":TL_18" function="internal">
        <lane id=":TL_18_0" index="0" speed="9.84" length="15.70" shape="1006.07,595.28,0.01 1006.46,595.33,0.01 1011.21,597.58,0.05 1014.06,601.33,0.08 1015.01,606.58,0.11" />
    </edge>

    <edge id="A2AA" from="A" to="AA" priority="-1">
        <lane id="A2AA_0" index="0" speed="11.18" length="220.38" shape="999.81,834.96,2.50 779.43,834.96,2.50" />
        <lane id="A2AA_1" index="1" speed="11.18" length="220.38" shape="999.81,831.76,2.50 779.43,831.76,2.50" />
    </edge>
    <edge id="A2AB" from="A" to="AB" priority="-1">
        <lane id="A2AB_0" index="0" speed="11.18" length="220.38" shape="1018.21,843.76,2.50 1018.21,1064.14,2.50" />
        <lane id="A2AB_1" index="1" speed="11.18" length="220.38" shape="1015.01,843.76,2.50 1015.01,1064.14,2.50" />
    </edge>
    <edge id="A2AC" from="A" to="AC" priority="-1">
        <lane id="A2AC_0" index="0" speed="11.18" length="223.58" shape="1023.81,825.36,2.50 1247.39,825.36,2.50" />
        <lane id="A2AC_1" index="1" speed="11.18" length="223.58" shape="1023.81,828.56,2.50 1247.39,828.56,2.50" />
    </edge>
    <edge id="A2TL" from="A" to="TL" priority="-1">
        <lane id="A2TL_0" index="0" speed="11.18" length="210.00" shape="1005.41,816.56,2.35 1005.41,606.58,0.11" />
        <lane id="A2TL_1" index="1" speed="11.18" length="210.00" shape="1008.61,816.56,2.35 1008.61,606.58,0.11" />
        <lane id="A2TL_2" index="2" speed="11.18" length="210.00" shape="1011.81,816.56,2.35 1011.81,606.58,0.11" />
    </edge>
    <edge id="AA2A" from="AA" to="A" priority="-1">
        <lane id="AA2A_0" index="0" speed="11.18" length="220.38" shape="779.43,822.16,2.50 999.81,822.16,2.50" />