<net xmlns:xsi="http://www.w3.org/2001/XMLSchema-instance" version="1.9" junctionCornerDetail="5" limitTurnSpeed="5.50" xsi:noNamespaceSchemaLocation="http://sumo.dlr.de/xsd/net_file.xsd">

    <location netOffset="608.05,631.49" convBoundary="0.00,0.00,1216.02,1114.72" origBoundary="-608.05,-631.49,607.97,483.23" projParameter="!" />

    <edge id=":A_0" function="internal">
        <lane id=":A_0_0" index="0" speed="7.33" length="11.73" shape="596.85,889.90,3.68 596.50,886.05,3.68 595.45,883.30,3.68 593.70,881.65,3.68 591.25,881.10,3.68" />
    </edge>
    <edge id=":A_1" function="internal">
        <lane id=":A_1_0" index="0" speed="15.65" length="33.60" shape="596.85,889.90,3.68 596.85,856.30,3.68" />
        <lane id=":A_1_1" index="1" speed="15.65" length="33.60" shape="600.05,889.90,3.68 600.05,856.30,3.68" />
        <lane id=":A_1_2" index="2" speed="15.65" length="33.60" shape="603.25,889.90,3.68 603.25,856.30,3.68" />
        <lane id=":A_1_3" index="3" speed="15.65" length="33.60" shape="606.45,889.90,3.68 606.45,856.30,3.68" />
    </edge>
    <edge id=":A_5" function="internal">
        <lane id=":A_5_0" index="0" speed="10.88" length="6.03" shape="606.45,889.90,3.68 607.15,883.92,3.68" />
    </edge>
    <edge id=":A_6" function="internal">
        <lane id=":A_6_0" index="0" speed="3.65" length="1.44" shape="606.45,889.90,3.68 607.25,888.70,3.68" />
    </edge>
    <edge id=":A_25" function="internal">
        <lane id=":A_25_0" index="0" speed="10.88" length="21.12" shape="607.15,883.92,3.68 607.40,881.85,3.68 610.25,876.10,3.68 615.00,872.65,3.68 621.65,871.50,3.68" />
    </edge>
    <edge id=":A_26" function="internal">
        <lane id=":A_26_0" index="0" speed="3.65" length="3.23" shape="607.25,888.70,3.68 608.05,888.30,3.68 608.85,888.70,3.68 609.65,889.90,3.68" />
    </edge>
    <edge id=":A_7" function="internal">
        <lane id=":A_7_0" index="0" speed="6.51" length="9.03" shape="621.65,884.30,3.68 619.20,884.65,3.68 617.45,885.70,3.68 616.40,887.45,3.68 616.05,889.90,3.68" />
    </edge>
    <edge id=":A_8" function="internal">
        <lane id=":A_8_0" index="0" speed="15.65" length="30.62" shape="621.65,884.30,3.68 612.56,883.80,3.68 606.34,882.70,3.68 600.17,881.60,3.68 591.25,881.10,3.68" />
        <lane id=":A_8_1" index="1" speed="15.65" length="30.62" shape="621.65,881.10,3.68 612.56,880.60,3.68 606.34,879.50,3.68 600.17,878.40,3.68 591.25,877.90,3.68" />
        <lane id=":A_8_2" index="2" speed="15.65" length="30.62" shape="621.65,877.90,3.68 612.56,877.40,3.68 606.34,876.30,3.68 600.17,875.20,3.68 591.25,874.70,3.68" />
    </edge>
    <edge id=":A_11" function="internal">
        <lane id=":A_11_0" index="0" speed="10.88" length="6.09" shape="621.65,874.70,3.68 615.64,873.67,3.68" />
    </edge>
    <edge id=":A_12" function="internal">
        <lane id=":A_12_0" index="0" speed="3.65" length="1.44" shape="621.65,874.70,3.68 620.45,873.90,3.68" />
    </edge>
    <edge id=":A_27" function="internal">
        <lane id=":A_27_0" index="0" speed="10.88" length="21.05" shape="615.64,873.67,3.68 615.00,873.55,3.68 610.25,870.10,3.68 607.40,864.35,3.68 606.45,856.30,3.68" />
    </edge>
    <edge id=":A_28" function="internal">
        <lane id=":A_28_0" index="0" speed="3.65" length="3.23" shape="620.45,873.90,3.68 620.05,873.10,3.68 620.45,872.30,3.68 621.65,871.50,3.68" />
    </edge>
    <edge id=":A_13" function="internal">
        <lane id=":A_13_0" index="0" speed="7.33" length="11.73" shape="616.05,856.30,3.68 616.40,860.15,3.68 617.45,862.90,3.68 619.20,864.55,3.68 621.65,865.10,3.68" />
    </edge>
    <edge id=":A_14" function="internal">
        <lane id=":A_14_0" index="0" speed="15.65" length="33.60" shape="616.05,856.30,3.68 616.05,889.90,3.68" />
        <lane id=":A_14_1" index="1" speed="15.65" length="33.60" shape="612.85,856.30,3.68 612.85,889.90,3.68" />
        <lane id=":A_14_2" index="2" speed="15.65" length="33.60" shape="609.65,856.30,3.68 609.65,889.90,3.68" />
    </edge>
    <edge id=":A_17" function="internal">
        <lane id=":A_17_0" index="0" speed="11.36" length="5.01" shape="609.65,856.30,3.68 608.94,861.27,3.68" />
    </edge>
    <edge id=":A_18" function="internal">
        <lane id=":A_18_0" index="0" speed="3.65" length="1.44" shape="609.65,856.30,3.68 608.85,857.50,3.68" />
    </edge>
    <edge id=":A_29" function="internal">
        <lane id=":A_29_0" index="0" speed="11.36" length="24.66" shape="608.94,861.27,3.68 608.50,864.35,3.68 605.05,870.10,3.68 599.30,873.55,3.68 591.25,874.70,3.68" />
    </edge>
    <edge id=":A_30" function="internal">
        <lane id=":A_30_0" index="0" speed="3.65" length="3.23" shape="608.85,857.50,3.68 608.05,857.90,3.68 607.25,857.50,3.68 606.45,856.30,3.68" />
    </edge>
    <edge id=":A_19" function="internal">
        <lane id=":A_19_0" index="0" speed="6.51" length="9.03" shape="591.25,861.90,3.68 593.70,861.55,3.68 595.45,860.50,3.68 596.50,858.75,3.68 596.85,856.30,3.68" />
    </edge>
    <edge id=":A_20" function="internal">
        <lane id=":A_20_0" index="0" speed="15.65" length="30.62" shape="591.25,861.90,3.68 600.33,862.40,3.68 606.55,863.50,3.68 612.72,864.60,3.68 621.65,865.10,3.68" />
        <lane id=":A_20_1" index="1" speed="15.65" length="30.62" shape="591.25,865.10,3.68 600.33,865.60,3.68 606.55,866.70,3.68 612.72,867.80,3.68 621.65,868.30,3.68" />
        <lane id=":A_20_2" index="2" speed="15.65" length="30.62" shape="591.25,868.30,3.68 600.33,868.80,3.68 606.55,869.90,3.68 612.72,871.00,3.68 621.65,871.50,3.68" />
    </edge>
    <edge id=":A_23" function="internal">
        <lane id=":A_23_0" index="0" speed="11.36" length="7.98" shape="591.25,871.50,3.68 599.15,872.63,3.68" />
    </edge>
    <edge id=":A_24" function="internal">
        <lane id=":A_24_0" index="0" speed="3.65" length="1.44" shape="591.25,871.50,3.68 592.45,872.30,3.68" />
    </edge>
    <edge id=":A_31" function="internal">
        <lane id=":A_31_0" index="0" speed="11.36" length="21.69" shape="599.15,872.63,3.68 599.30,872.65,3.68 605.05,876.10,3.68 608.50,881.85,3.68 609.65,889.90,3.68" />
    </edge>
    <edge id=":A_32" function="internal">
        <lane id=":A_32_0" index="0" speed="3.65" length="3.23" shape="592.45,872.30,3.68 592.85,873.10,3.68 592.45,873.90,3.68 591.25,874.70,3.68" />
    </edge>
    <edge id=":AA_0" function="internal">
        <lane id=":AA_0_0" index="0" speed="3.65" length="4.67" shape="366.43,874.70,3.68 365.23,873.90,3.68 364.83,873.10,3.68 365.23,872.30,3.68 366.43,871.50,3.68" />
    </edge>
    <edge id=":AB_0" function="internal">
        <lane id=":AB_0_0" index="0" speed="3.65" length="4.67" shape="609.65,1114.72,3.68 608.85,1115.92,3.68 608.05,1116.32,3.68 607.25,1115.92,3.68 606.45,1114.72,3.68" />
    </edge>
    <edge id=":AC_0" function="internal">
        <lane id=":AC_0_0" index="0" speed="3.65" length="4.67" shape="849.66,871.50,3.68 850.86,872.30,3.68 851.26,873.10,3.68 850.86,873.90,3.68 849.66,874.70,3.68" />
    </edge>
    <edge id=":B_0" function="internal">
        <lane id=":B_0_0" index="0" speed="6.51" length="9.03" shape="907.23,641.89,-3.52 906.88,639.44,-3.49 905.83,637.69,-3.46 904.08,636.64,-3.43 901.63,636.29,-3.40" />
    </edge>
    <edge id=":B_1" function="internal">
        <lane id=":B_1_0" index="0" speed="11.18" length="20.80" shape="907.23,641.89,-3.52 907.23,621.09,-3.52" />
        <lane id=":B_1_1" index="1" speed="11.18" length="20.80" shape="910.43,641.89,-3.52 910.43,621.09,-3.52" />
    </edge>
    <edge id=":B_3" function="internal">
        <lane id=":B_3_0" index="0" speed="9.26" length="5.01" shape="910.43,641.89,-3.52 911.14,636.93,-3.52" />
    </edge>
    <edge id=":B_4" function="internal">
        <lane id=":B_4_0" index="0" speed="3.65" length="1.44" shape="910.43,641.89,-3.52 911.23,640.69,-3.52" />
    </edge>
    <edge id=":B_20" function="internal">
        <lane id=":B_20_0" index="0" speed="9.26" length="14.34" shape="911.14,636.93,-3.52 911.18,636.64,-3.52 913.43,632.89,-3.52 917.18,630.64,-3.52 922.43,629.89,-3.52" />
    </edge>
    <edge id=":B_21" function="internal">
        <lane id=":B_21_0" index="0" speed="3.65" length="3.23" shape="911.23,640.69,-3.52 912.03,640.29,-3.52 912.83,640.69,-3.52 913.63,641.89,-3.52" />
    </edge>
    <edge id=":B_5" function="internal">
        <lane id=":B_5_0" index="0" speed="6.51" length="9.03" shape="922.43,636.29,-3.52 919.98,636.64,-3.52 918.23,637.69,-3.52 917.18,639.44,-3.52 916.83,641.89,-3.52" />
    </edge>
    <edge id=":B_6" function="internal">
        <lane id=":B_6_0" index="0" speed="11.18" length="20.80" shape="922.43,636.29,-3.52 901.63,636.29,-3.40" />
        <lane id=":B_6_1" index="1" speed="11.18" length="20.80" shape="922.43,633.09,-3.52 901.63,633.09,-3.40" />
    </edge>
    <edge id=":B_8" function="internal">
        <lane id=":B_8_0" index="0" speed="9.26" length="5.01" shape="922.43,633.09,-3.52 917.47,632.38,-3.52" />
    </edge>
    <edge id=":B_9" function="internal">
        <lane id=":B_9_0" index="0" speed="3.65" length="1.44" shape="922.43,633.09,-3.52 921.23,632.29,-3.52" />
    </edge>
    <edge id=":B_22" function="internal">
        <lane id=":B_22_0" index="0" speed="9.26" length="14.34" shape="917.47,632.38,-3.52 917.18,632.34,-3.52 913.43,630.09,-3.52 911.18,626.34,-3.52 910.43,621.09,-3.52" />
    </edge>
    <edge id=":B_23" function="internal">
        <lane id=":B_23_0" index="0" speed="3.65" length="3.23" shape="921.23,632.29,-3.52 920.83,631.49,-3.52 921.23,630.69,-3.52 922.43,629.89,-3.52" />
    </edge>
    <edge id=":B_10" function="internal">
        <lane id=":B_10_0" index="0" speed="6.51" length="9.03" shape="916.83,621.09,-3.52 917.18,623.54,-3.52 918.23,625.29,-3.52 919.98,626.34,-3.52 922.43,626.69,-3.52" />
    </edge>
    <edge id=":B_11" function="internal">
        <lane id=":B_11_0" index="0" speed="11.18" length="20.80" shape="916.83,621.09,-3.52 916.83,641.89,-3.52" />
        <lane id=":B_11_1" index="1" speed="11.18" length="20.80" shape="913.63,621.09,-3.52 913.63,641.89,-3.52" />
    </edge>
    <edge id=":B_13" function="internal">
        <lane id=":B_13_0" index="0" speed="9.26" length="5.01" shape="913.63,621.09,-3.52 912.92,626.05,-3.49" />
    </edge>
    <edge id=":B_14" function="internal">
        <lane id=":B_14_0" index="0" speed="3.65" length="1.44" shape="913.63,621.09,-3.52 912.83,622.29,-3.52" />
    </edge>
    <edge id=":B_24" function="internal">
        <lane id=":B_24_0" index="0" speed="9.26" length="14.34" shape="912.92,626.05,-3.49 912.88,626.34,-3.49 910.63,630.09,-3.46 906.88,632.34,-3.43 901.63,633.09,-3.40" />
    </edge>
    <edge id=":B_25" function="internal">
        <lane id=":B_25_0" index="0" speed="3.65" length="3.23" shape="912.83,622.29,-3.52 912.03,622.69,-3.52 911.23,622.29,-3.52 910.43,621.09,-3.52" />
    </edge>
    <edge id=":B_15" function="internal">
        <lane id=":B_15_0" index="0" speed="6.51" length="9.03" shape="901.63,626.69,-3.40 904.08,626.34,-3.43 905.83,625.29,-3.46 906.88,623.54,-3.49 907.23,621.09,-3.52" />
    </edge>
    <edge id=":B_16" function="internal">
        <lane id=":B_16_0" index="0" speed="11.18" length="20.80" shape="901.63,626.69,-3.40 922.43,626.69,-3.52" />
        <lane id=":B_16_1" index="1" speed="11.18" length="20.80" shape="901.63,629.89,-3.40 922.43,629.89,-3.52" />
    </edge>
    <edge id=":B_18" function="internal">
        <lane id=":B_18_0" index="0" speed="9.26" length="5.01" shape="901.63,629.89,-3.40 906.59,630.60,-3.43" />
    </edge>
    <edge id=":B_19" function="internal">
        <lane id=":B_19_0" index="0" speed="3.65" length="1.44" shape="901.63,629.89,-3.40 902.83,630.69,-3.40" />
    </edge>
    <edge id=":B_26" function="internal">
        <lane id=":B_26_0" index="0" speed="9.26" length="14.34" shape="906.59,630.60,-3.43 906.88,630.64,-3.43 910.63,632.89,-3.46 912.88,636.64,-3.49 913.63,641.89,-3.52" />
    </edge>
    <edge id=":B_27" function="internal">
        <lane id=":B_27_0" index="0" speed="3.65" length="3.23" shape="902.83,630.69,-3.40 903.23,631.49,-3.40 902.83,632.29,-3.40 901.63,633.09,-3.40" />
    </edge>
    <edge id=":BA_0" function="internal">
        <lane id=":BA_0_0" index="0" speed="3.65" length="4.67" shape="913.63,935.47,-3.52 912.83,936.67,-3.52 912.03,937.07,-3.52 911.23,936.67,-3.52 910.43,935.47,-3.52" />
    </edge>
    <edge id=":BB_0" function="internal">
        <lane id=":BB_0_0" index="0" speed="3.65" length="4.67" shape="1216.02,629.89,-3.52 1217.22,630.69,-3.52 1217.62,631.49,-3.52 1217.22,632.29,-3.52 1216.02,633.09,-3.52" />
    </edge>
    <edge id=":BC_0" function="internal">
        <lane id=":BC_0_0" index="0" speed="3.65" length="4.67" shape="910.43,327.50,-3.52 911.23,326.30,-3.52 912.03,325.90,-3.52 912.83,326.30,-3.52 913.63,327.50,-3.52" />
    </edge>
    <edge id=":C_0" function="internal">
        <lane id=":C_0_0" index="0" speed="7.33" length="11.73" shape="600.05,332.54 599.70,328.69 598.65,325.94 596.90,324.29 594.45,323.74" />
    </edge>
    <edge id=":C_1" function="internal">
        <lane id=":C_1_0" index="0" speed="17.88" length="33.60" shape="600.05,332.54 600.05,298.94" />
        <lane id=":C_1_1" index="1" speed="17.88" length="33.60" shape="603.25,332.54 603.25,298.94" />
        <lane id=":C_1_2" index="2" speed="17.88" length="33.60" shape="606.45,332.54 606.45,298.94" />
    </edge>
    <edge id=":C_4" function="internal">
        <lane id=":C_4_0" index="0" speed="11.36" length="5.01" shape="606.45,332.54 607.16,327.58" />
    </edge>
    <edge id=":C_5" function="internal">
        <lane id=":C_5_0" index="0" speed="3.65" length="1.44" shape="606.45,332.54 607.25,331.34" />
    </edge>
    <edge id=":C_25" function="internal">
        <lane id=":C_25_0" index="0" speed="11.36" length="24.66" shape="607.16,327.58 607.60,324.49 611.05,318.74 616.80,315.29 624.85,314.14" />
    </edge>
    <edge id=":C_26" function="internal">
        <lane id=":C_26_0" index="0" speed="3.65" length="3.23" shape="607.25,331.34 608.05,330.94 608.85,331.34 609.65,332.54" />
    </edge>
    <edge id=":C_6" function="internal">
        <lane id=":C_6_0" index="0" speed="6.51" length="9.03" shape="624.85,326.94 622.40,327.29 620.65,328.34 619.60,330.09 619.25,332.54" />
    </edge>
    <edge id=":C_7" function="internal">
        <lane id=":C_7_0" index="0" speed="17.88" length="30.62" shape="624.85,326.94 615.76,326.44 609.54,325.34 603.37,324.24 594.45,323.74" />
        <lane id=":C_7_1" index="1" speed="17.88" length="30.62" shape="624.85,323.74 615.76,323.24 609.54,322.14 603.37,321.04 594.45,320.54" />
        <lane id=":C_7_2" index="2" speed="17.88" length="30.62" shape="624.85,320.54 615.76,320.04 609.54,318.94 603.37,317.84 594.45,317.34" />
    </edge>
    <edge id=":C_10" function="internal">
        <lane id=":C_10_0" index="0" speed="11.36" length="7.98" shape="624.85,317.34 616.94,316.22" />
    </edge>
    <edge id=":C_11" function="internal">
        <lane id=":C_11_0" index="0" speed="3.65" length="1.44" shape="624.85,317.34 623.65,316.54" />
    </edge>
    <edge id=":C_27" function="internal">
        <lane id=":C_27_0" index="0" speed="11.36" length="21.69" shape="616.94,316.22 616.80,316.19 611.05,312.74 607.60,306.99 606.45,298.94" />
    </edge>
    <edge id=":C_28" function="internal">
        <lane id=":C_28_0" index="0" speed="3.65" length="3.23" shape="623.65,316.54 623.25,315.74 623.65,314.94 624.85,314.14" />
    </edge>
    <edge id=":C_12" function="internal">
        <lane id=":C_12_0" index="0" speed="7.33" length="11.73" shape="619.25,298.94 619.60,302.79 620.65,305.54 622.40,307.19 624.85,307.74" />
    </edge>
    <edge id=":C_13" function="internal">
        <lane id=":C_13_0" index="0" speed="17.88" length="33.60" shape="619.25,298.94 619.25,332.54" />
        <lane id=":C_13_1" index="1" speed="17.88" length="33.60" shape="616.05,298.94 616.05,332.54" />
        <lane id=":C_13_2" index="2" speed="17.88" length="33.60" shape="612.85,298.94 612.85,332.54" />
        <lane id=":C_13_3" index="3" speed="17.88" length="33.60" shape="609.65,298.94 609.65,332.54" />
    </edge>
    <edge id=":C_17" function="internal">
        <lane id=":C_17_0" index="0" speed="10.88" length="6.03" shape="609.65,298.94 608.94,304.93" />
    </edge>
    <edge id=":C_18" function="internal">
        <lane id=":C_18_0" index="0" speed="3.65" length="1.44" shape="609.65,298.94 608.85,300.14" />
    </edge>
    <edge id=":C_29" function="internal">
        <lane id=":C_29_0" index="0" speed="10.88" length="21.12" shape="608.94,304.93 608.70,306.99 605.85,312.74 601.10,316.19 594.45,317.34" />
    </edge>
    <edge id=":C_30" function="internal">
        <lane id=":C_30_0" index="0" speed="3.65" length="3.23" shape="608.85,300.14 608.05,300.54 607.25,300.14 606.45,298.94" />
    </edge>
    <edge id=":C_19" function="internal">
        <lane id=":C_19_0" index="0" speed="6.51" length="9.03" shape="594.45,304.54 596.90,304.19 598.65,303.14 599.70,301.39 600.05,298.94" />
    </edge>
    <edge id=":C_20" function="internal">
        <lane id=":C_20_0" index="0" speed="17.88" length="30.62" shape="594.45,304.54 603.53,305.04 609.75,306.14 615.92,307.24 624.85,307.74" />
        <lane id=":C_20_1" index="1" speed="17.88" length="30.62" shape="594.45,307.74 603.53,308.24 609.75,309.34 615.92,310.44 624.85,310.94" />
        <lane id=":C_20_2" index="2" speed="17.88" length="30.62" shape="594.45,310.94 603.53,311.44 609.75,312.54 615.92,313.64 624.85,314.14" />
    </edge>
    <edge id=":C_23" function="internal">
        <lane id=":C_23_0" index="0" speed="10.88" length="6.09" shape="594.45,314.14 600.45,315.18" />
    </edge>
    <edge id=":C_24" function="internal">
        <lane id=":C_24_0" index="0" speed="3.65" length="1.44" shape="594.45,314.14 595.65,314.94" />
    </edge>
    <edge id=":C_31" function="internal">
        <lane id=":C_31_0" index="0" speed="10.88" length="21.05" shape="600.45,315.18 601.10,315.29 605.85,318.74 608.70,324.49 609.65,332.54" />
    </edge>
    <edge id=":C_32" function="internal">
        <lane id=":C_32_0" index="0" speed="3.65" length="3.23" shape="595.65,314.94 596.05,315.74 595.65,316.54 594.45,317.34" />
    </edge>
    <edge id=":CA_0" function="internal">
        <lane id=":CA_0_0" index="0" speed="3.65" length="4.67" shape="923.79,314.14 924.99,314.94 925.39,315.74 924.99,316.54 923.79,317.34" />
    </edge>
    <edge id=":CB_0" function="internal">
        <lane id=":CB_0_0" index="0" speed="3.65" length="4.67" shape="606.45,0.00 607.25,-1.20 608.05,-1.60 608.85,-1.20 609.65,0.00" />
    </edge>
    <edge id=":CC_0" function="internal">
        <lane id=":CC_0_0" index="0" speed="3.65" length="4.67" shape="292.30,317.34 291.10,316.54 290.70,315.74 291.10,314.94 292.30,314.14" />
    </edge>
    <edge id=":D_0" function="internal">
        <lane id=":D_0_0" index="0" speed="6.51" length="9.03" shape="299.22,641.89,-3.80 298.87,639.44,-3.80 297.82,637.69,-3.80 296.07,636.64,-3.80 293.62,636.29,-3.80" />
    </edge>
    <edge id=":D_1" function="internal">
        <lane id=":D_1_0" index="0" speed="11.18" length="20.80" shape="299.22,641.89,-3.80 299.22,621.09,-3.80" />
        <lane id=":D_1_1" index="1" speed="11.18" length="20.80" shape="302.42,641.89,-3.80 302.42,621.09,-3.80" />
    </edge>
    <edge id=":D_3" function="internal">
        <lane id=":D_3_0" index="0" speed="9.26" length="5.01" shape="302.42,641.89,-3.80 303.13,636.93,-3.77" />
    </edge>
    <edge id=":D_4" function="internal">
        <lane id=":D_4_0" index="0" speed="3.65" length="1.44" shape="302.42,641.89,-3.80 303.22,640.69,-3.80" />
    </edge>
    <edge id=":D_20" function="internal">
        <lane id=":D_20_0" index="0" speed="9.26" length="14.34" shape="303.13,636.93,-3.77 303.17,636.64,-3.76 305.42,632.89,-3.73 309.17,630.64,-3.70 314.42,629.89,-3.67" />
    </edge>
    <edge id=":D_21" function="internal">
        <lane id=":D_21_0" index="0" speed="3.65" length="3.23" shape="303.22,640.69,-3.80 304.02,640.29,-3.80 304.82,640.69,-3.80 305.62,641.89,-3.80" />
    </edge>
    <edge id=":D_5" function="internal">
        <lane id=":D_5_0" index="0" speed="6.51" length="9.03" shape="314.42,636.29,-3.66 311.97,636.64,-3.70 310.22,637.69,-3.73 309.17,639.44,-3.76 308.82,641.89,-3.80" />
    </edge>
    <edge id=":D_6" function="internal">
        <lane id=":D_6_0" index="0" speed="11.18" length="20.80" shape="314.42,636.29,-3.66 293.62,636.29,-3.80" />
        <lane id=":D_6_1" index="1" speed="11.18" length="20.80" shape="314.42,633.09,-3.66 293.62,633.09,-3.80" />
    </edge>
    <edge id=":D_8" function="internal">
        <lane id=":D_8_0" index="0" speed="9.26" length="5.01" shape="314.42,633.09,-3.66 309.46,632.38,-3.70" />
    </edge>
    <edge id=":D_9" function="internal">
        <lane id=":D_9_0" index="0" speed="3.65" length="1.44" shape="314.42,633.09,-3.66 313.22,632.29,-3.66" />
    </edge>
    <edge id=":D_22" function="internal">
        <lane id=":D_22_0" index="0" speed="9.26" length="14.34" shape="309.46,632.38,-3.70 309.17,632.34,-3.70 305.42,630.09,-3.73 303.17,626.34,-3.76 302.42,621.09,-3.80" />
    </edge>
    <edge id=":D_23" function="internal">
        <lane id=":D_23_0" index="0" speed="3.65" length="3.23" shape="313.22,632.29,-3.66 312.82,631.49,-3.67 313.22,630.69,-3.67 314.42,629.89,-3.67" />
    </edge>
    <edge id=":D_10" function="internal">
        <lane id=":D_10_0" index="0" speed="6.51" length="9.03" shape="308.82,621.09,-3.80 309.17,623.54,-3.76 310.22,625.29,-3.73 311.97,626.34,-3.70 314.42,626.69,-3.67" />
    </edge>
    <edge id=":D_11" function="internal">
        <lane id=":D_11_0" index="0" speed="11.18" length="20.80" shape="308.82,621.09,-3.80 308.82,641.89,-3.80" />
        <lane id=":D_11_1" index="1" speed="11.18" length="20.80" shape="305.62,621.09,-3.80 305.62,641.89,-3.80" />
    </edge>
    <edge id=":D_13" function="internal">
        <lane id=":D_13_0" index="0" speed="9.26" length="5.01" shape="305.62,621.09,-3.80 304.91,626.05,-3.80" />
    </edge>
    <edge id=":D_14" function="internal">
        <lane id=":D_14_0" index="0" speed="3.65" length="1.44" shape="305.62,621.09,-3.80 304.82,622.29,-3.80" />
    </edge>
    <edge id=":D_24" function="internal">
        <lane id=":D_24_0" index="0" speed="9.26" length="14.34" shape="304.91,626.05,-3.80 304.87,626.34,-3.80 302.62,630.09,-3.80 298.87,632.34,-3.80 293.62,633.09,-3.80" />
    </edge>
    <edge id=":D_25" function="internal">
        <lane id=":D_25_0" index="0" speed="3.65" length="3.23" shape="304.82,622.29,-3.80 304.02,622.69,-3.80 303.22,622.29,-3.80 302.42,621.09,-3.80" />
    </edge>
    <edge id=":D_15" function="internal">
        <lane id=":D_15_0" index="0" speed="6.51" length="9.03" shape="293.62,626.69,-3.80 296.07,626.34,-3.80 297.82,625.29,-3.80 298.87,623.54,-3.80 299.22,621.09,-3.80" />
    </edge>
    <edge id=":D_16" function="internal">
        <lane id=":D_16_0" index="0" speed="11.18" length="20.80" shape="293.62,626.69,-3.80 314.42,626.69,-3.67" />
        <lane id=":D_16_1" index="1" speed="11.18" length="20.80" shape="293.62,629.89,-3.80 314.42,629.89,-3.67" />
    </edge>
    <edge id=":D_18" function="internal">
        <lane id=":D_18_0" index="0" speed="9.26" length="5.01" shape="293.62,629.89,-3.80 298.59,630.60,-3.80" />
    </edge>
    <edge id=":D_19" function="internal">
        <lane id=":D_19_0" index="0" speed="3.65" length="1.44" shape="293.62,629.89,-3.80 294.82,630.69,-3.80" />
    </edge>
    <edge id=":D_26" function="internal">
        <lane id=":D_26_0" index="0" speed="9.26" length="14.34" shape="298.59,630.60,-3.80 298.87,630.64,-3.80 302.62,632.89,-3.80 304.87,636.64,-3.80 305.62,641.89,-3.80" />
    </edge>
    <edge id=":D_27" function="internal">
        <lane id=":D_27_0" index="0" speed="3.65" length="3.23" shape="294.82,630.69,-3.80 295.22,631.49,-3.80 294.82,632.29,-3.80 293.62,633.09,-3.80" />
    </edge>
    <edge id=":DA_0" function="internal">
        <lane id=":DA_0_0" index="0" speed="3.65" length="4.67" shape="302.42,327.47,-3.80 303.22,326.27,-3.80 304.02,325.87,-3.80 304.82,326.27,-3.80 305.62,327.47,-3.80" />
    </edge>
    <edge id=":DB_0" function="internal">
        <lane id=":DB_0_0" index="0" speed="3.65" length="4.67" shape="-0.00,633.09,-3.80 -1.20,632.29,-3.80 -1.60,631.49,-3.80 -1.20,630.69,-3.80 0.00,629.89,-3.80" />
    </edge>
    <edge id=":DC_0" function="internal">
        <lane id=":DC_0_0" index="0" speed="3.65" length="4.67" shape="305.62,935.51,-3.80 304.82,936.71,-3.80 304.02,937.11,-3.80 303.22,936.71,-3.80 302.42,935.51,-3.80" />
    </edge>
    <edge id=":TL_0" function="internal">
        <lane id=":TL_0_0" index="0" speed="6.51" length="9.03" shape="596.85,641.89,0.17 596.50,639.44,0.12 595.45,637.69,0.09 593.70,636.64,0.05 591.25,636.29" />
    </edge>
    <edge id=":TL_1" function="internal">
        <lane id=":TL_1_0" index="0" speed="16.76" length="21.04" shape="596.85,641.89,0.17 597.35,635.68,0.12 598.45,631.49,0.09 599.55,627.30,0.05 600.05,621.09" />
        <lane id=":TL_1_1" index="1" speed="16.76" length="21.04" shape="600.05,641.89,0.17 600.55,635.68,0.12 601.65,631.49,0.09 602.75,627.30,0.05 603.25,621.09" />
        <lane id=":TL_1_2" index="2" speed="16.76" length="21.04" shape="603.25,641.89,0.17 603.75,635.68,0.12 604.85,631.49,0.09 605.95,627.30,0.05 606.45,621.09" />
        <lane id=":TL_1_3" index="3" speed="16.76" length="21.04" shape="606.45,641.89,0.17 606.45,621.09" />
    </edge>
    <edge id=":TL_5" function="internal">
        <lane id=":TL_5_0" index="0" speed="10.41" length="5.14" shape="606.45,641.89,0.17 607.55,636.87,0.09" />
    </edge>
    <edge id=":TL_19" function="internal">
        <lane id=":TL_19_0" index="0" speed="10.41" length="19.59" shape="607.55,636.87,0.09 607.60,636.64,0.09 611.05,632.89,0.02 616.80,630.64,-0.08 624.85,629.89,-0.19" />
    </edge>
    <edge id=":TL_6" function="internal">
        <lane id=":TL_6_0" index="0" speed="7.33" length="11.73" shape="624.85,636.29,-0.19 621.00,636.64,-0.08 618.25,637.69,0.01 616.60,639.44,0.08 616.05,641.89,0.16" />
    </edge>
    <edge id=":TL_7" function="internal">
        <lane id=":TL_7_0" index="0" speed="11.18" length="33.60" shape="624.85,636.29,-0.19 591.25,636.29" />
        <lane id=":TL_7_1" index="1" speed="11.18" length="33.60" shape="624.85,633.09,-0.19 591.25,633.09" />
    </edge>
    <edge id=":TL_9" function="internal">
        <lane id=":TL_9_0" index="0" speed="10.41" length="7.59" shape="624.85,633.09,-0.19 617.29,632.38,-0.13" />
    </edge>
    <edge id=":TL_20" function="internal">
        <lane id=":TL_20_0" index="0" speed="10.41" length="17.14" shape="617.29,632.38,-0.13 616.80,632.34,-0.13 611.05,630.09,-0.08 607.60,626.34,-0.04 606.45,621.09" />
    </edge>
    <edge id=":TL_10" function="internal">
        <lane id=":TL_10_0" index="0" speed="6.51" length="9.03" shape="619.25,621.09 619.60,623.54,-0.05 620.65,625.29,-0.10 622.40,626.34,-0.14 624.85,626.69,-0.19" />
    </edge>
    <edge id=":TL_11" function="internal">
        <lane id=":TL_11_0" index="0" speed="16.76" length="21.12" shape="619.25,621.09 618.75,627.30,0.05 617.65,631.49,0.08 616.55,635.68,0.11 616.05,641.89,0.16" />
        <lane id=":TL_11_1" index="1" speed="16.76" length="21.12" shape="616.05,621.09 615.55,627.30,0.05 614.45,631.49,0.08 613.35,635.68,0.11 612.85,641.89,0.16" />
        <lane id=":TL_11_2" index="2" speed="16.76" length="21.12" shape="612.85,621.09 612.35,627.30,0.05 611.25,631.49,0.08 610.15,635.68,0.11 609.65,641.89,0.16" />
    </edge>
    <edge id=":TL_14" function="internal">
        <lane id=":TL_14_0" index="0" speed="10.41" length="3.37" shape="609.65,621.09 608.93,624.38" />
    </edge>
    <edge id=":TL_21" function="internal">
        <lane id=":TL_21_0" index="0" speed="10.41" length="21.36" shape="608.93,624.38 608.50,626.34 605.05,630.09 599.30,632.34 591.25,633.09" />
    </edge>
    <edge id=":TL_15" function="internal">
        <lane id=":TL_15_0" index="0" speed="7.33" length="11.73" shape="591.25,626.69 595.10,626.34 597.85,625.29 599.50,623.54 600.05,621.09" />
    </edge>
    <edge id=":TL_16" function="internal">
        <lane id=":TL_16_0" index="0" speed="11.18" length="33.60" shape="591.25,626.69 624.85,626.69,-0.19" />
        <lane id=":TL_16_1" index="1" speed="11.18" length="33.60" shape="591.25,629.89 624.85,629.89,-0.19" />
    </edge>
    <edge id=":TL_18" function="internal">
        <lane id=":TL_18_0" index="0" speed="10.41" length="7.59" shape="591.25,629.89 598.80,630.59,0.05" />
    </edge>
    <edge id=":TL_22" function="internal">
        <lane id=":TL_22_0" index="0" speed="10.41" length="17.14" shape="598.80,630.59,0.05 599.30,630.64,0.05 605.05,632.89,0.09 608.50,636.64,0.12 609.65,641.89,0.16" />
    </edge>

    <edge id="A2AA" from="A" to="AA" priority="-1">
        <lane id="A2AA_0" index="0" speed="15.65" length="224.82" shape="591.25,881.10,3.68 366.43,881.10,3.68" />
        <lane id="A2AA_1" index="1" speed="15.65" length="224.82" shape="591.25,877.90,3.68 366.43,877.90,3.68" />
        <lane id="A2AA_2" index="2" speed="15.65" length="224.82" shape="591.25,874.70,3.68 366.43,874.70,3.68" />
    </edge>
    <edge id="A2AB" from="A" to="AB" priority="-1">
        <lane id="A2AB_0" index="0" speed="15.65" length="224.82" shape="616.05,889.90,3.68 616.05,1114.72,3.68" />
        <lane id="A2AB_1" index="1" speed="15.65" length="224.82" shape="612.85,889.90,3.68 612.85,1114.72,3.68" />
        <lane id="A2AB_2" index="2" speed="15.65" length="224.82" shape="609.65,889.90,3.68 609.65,1114.72,3.68" />
    </edge>
    <edge id="A2AC" from="A" to="AC" priority="-1">
        <lane id="A2AC_0" index="0" speed="15.65" length="228.02" shape="621.65,865.10,3.68 849.66,865.10,3.68" />