<net xmlns:xsi="http://www.w3.org/2001/XMLSchema-instance" version="1.9" junctionCornerDetail="5" limitTurnSpeed="5.50" xsi:noNamespaceSchemaLocation="http://sumo.dlr.de/xsd/net_file.xsd">

    <location netOffset="319.26,352.56" convBoundary="0.00,0.00,853.37,991.08" origBoundary="-319.26,-352.56,534.11,638.51" projParameter="!" />

    <edge id=":A_0" function="internal">
        <lane id=":A_0_0" index="0" speed="6.51" length="9.03" shape="317.66,679.02,-1.36 317.31,676.57,-1.36 316.26,674.82,-1.36 314.51,673.77,-1.36 312.06,673.42,-1.36" />
    </edge>
    <edge id=":A_1" function="internal">
        <lane id=":A_1_0" index="0" speed="11.18" length="14.40" shape="317.66,679.02,-1.36 317.66,664.62,-1.33" />
    </edge>
    <edge id=":A_2" function="internal">
        <lane id=":A_2_0" index="0" speed="8.00" length="4.07" shape="317.66,679.02,-1.36 318.21,675.17,-1.36 318.30,675.02,-1.36" />
    </edge>
    <edge id=":A_3" function="internal">
        <lane id=":A_3_0" index="0" speed="3.65" length="1.44" shape="317.66,679.02,-1.36 318.46,677.82,-1.36" />
    </edge>
    <edge id=":A_16" function="internal">
        <lane id=":A_16_0" index="0" speed="8.00" length="10.13" shape="318.30,675.02,-1.36 319.86,672.42,-1.36 322.61,670.77,-1.36 326.46,670.22,-1.36" />
    </edge>
    <edge id=":A_17" function="internal">
        <lane id=":A_17_0" index="0" speed="3.65" length="3.23" shape="318.46,677.82,-1.36 319.26,677.42,-1.36 320.06,677.82,-1.36 320.86,679.02,-1.36" />
    </edge>
    <edge id=":A_4" function="internal">
        <lane id=":A_4_0" index="0" speed="6.51" length="9.03" shape="326.46,673.42,-1.36 324.01,673.77,-1.36 322.26,674.82,-1.36 321.21,676.57,-1.36 320.86,679.02,-1.36" />
    </edge>
    <edge id=":A_5" function="internal">
        <lane id=":A_5_0" index="0" speed="11.18" length="14.40" shape="326.46,673.42,-1.36 312.06,673.42,-1.36" />
    </edge>
    <edge id=":A_6" function="internal">
        <lane id=":A_6_0" index="0" speed="8.00" length="4.07" shape="326.46,673.42,-1.36 322.61,672.87,-1.35 322.45,672.78,-1.35" />
    </edge>
    <edge id=":A_7" function="internal">
        <lane id=":A_7_0" index="0" speed="3.65" length="1.44" shape="326.46,673.42,-1.36 325.26,672.62,-1.36" />
    </edge>
    <edge id=":A_18" function="internal">
        <lane id=":A_18_0" index="0" speed="8.00" length="10.13" shape="322.45,672.78,-1.35 319.86,671.22,-1.35 318.21,668.47,-1.34 317.66,664.62,-1.33" />
    </edge>
    <edge id=":A_19" function="internal">
        <lane id=":A_19_0" index="0" speed="3.65" length="3.23" shape="325.26,672.62,-1.36 324.86,671.82,-1.36 325.26,671.02,-1.36 326.46,670.22,-1.36" />
    </edge>
    <edge id=":A_8" function="internal">
        <lane id=":A_8_0" index="0" speed="6.51" length="9.03" shape="320.86,664.62,-1.33 321.21,667.07,-1.34 322.26,668.82,-1.35 324.01,669.87,-1.35 326.46,670.22,-1.36" />
    </edge>
    <edge id=":A_9" function="internal">
        <lane id=":A_9_0" index="0" speed="11.18" length="14.40" shape="320.86,664.62,-1.33 320.86,679.02,-1.36" />
    </edge>
    <edge id=":A_10" function="internal">
        <lane id=":A_10_0" index="0" speed="8.00" length="4.07" shape="320.86,664.62,-1.33 320.31,668.47,-1.34 320.22,668.62,-1.34" />
    </edge>
    <edge id=":A_11" function="internal">
        <lane id=":A_11_0" index="0" speed="3.65" length="1.44" shape="320.86,664.62,-1.33 320.06,665.82,-1.33" />
    </edge>
    <edge id=":A_20" function="internal">
        <lane id=":A_20_0" index="0" speed="8.00" length="10.13" shape="320.22,668.62,-1.34 318.66,671.22,-1.35 315.91,672.87,-1.35 312.06,673.42,-1.36" />
    </edge>
    <edge id=":A_21" function="internal">
        <lane id=":A_21_0" index="0" speed="3.65" length="3.23" shape="320.06,665.82,-1.33 319.26,666.22,-1.33 318.46,665.82,-1.33 317.66,664.62,-1.33" />
    </edge>
    <edge id=":A_12" function="internal">
        <lane id=":A_12_0" index="0" speed="6.51" length="9.03" shape="312.06,670.22,-1.36 314.51,669.87,-1.35 316.26,668.82,-1.35 317.31,667.07,-1.34 317.66,664.62,-1.33" />
    </edge>
    <edge id=":A_13" function="internal">
        <lane id=":A_13_0" index="0" speed="11.18" length="14.40" shape="312.06,670.22,-1.36 326.46,670.22,-1.36" />
    </edge>
    <edge id=":A_14" function="internal">
        <lane id=":A_14_0" index="0" speed="8.00" length="4.07" shape="312.06,670.22,-1.36 315.91,670.77,-1.36 316.06,670.86,-1.36" />
    </edge>
    <edge id=":A_15" function="internal">
        <lane id=":A_15_0" index="0" speed="3.65" length="1.44" shape="312.06,670.22,-1.36 313.26,671.02,-1.36" />
    </edge>
    <edge id=":A_22" function="internal">
        <lane id=":A_22_0" index="0" speed="8.00" length="10.13" shape="316.06,670.86,-1.36 318.66,672.42,-1.36 320.31,675.17,-1.36 320.86,679.02,-1.36" />
    </edge>
    <edge id=":A_23" function="internal">
        <lane id=":A_23_0" index="0" speed="3.65" length="3.23" shape="313.26,671.02,-1.36 313.66,671.82,-1.36 313.26,672.62,-1.36 312.06,673.42,-1.36" />
    </edge>
    <edge id=":AA_0" function="internal">
        <lane id=":AA_0_0" index="0" speed="3.65" length="4.67" shape="0.00,673.42,-1.36 -1.20,672.62,-1.36 -1.60,671.82,-1.36 -1.20,671.02,-1.36 0.00,670.22,-1.36" />
    </edge>
    <edge id=":AB_0" function="internal">
        <lane id=":AB_0_0" index="0" speed="3.65" length="4.67" shape="320.86,991.08,-1.36 320.06,992.28,-1.36 319.26,992.68,-1.36 318.46,992.28,-1.36 317.66,991.08,-1.36" />
    </edge>
    <edge id=":AC_0" function="internal">
        <lane id=":AC_0_0" index="0" speed="3.65" length="4.67" shape="638.51,670.22,-1.36 639.71,671.02,-1.36 640.11,671.82,-1.36 639.71,672.62,-1.36 638.51,673.42,-1.36" />
    </edge>
    <edge id=":B_0" function="internal">
        <lane id=":B_0_0" index="0" speed="6.51" length="9.03" shape="581.51,362.96,4.48 581.16,360.51,4.43 580.11,358.76,4.39 578.36,357.71,4.35 575.91,357.36,4.30" />
    </edge>
    <edge id=":B_1" function="internal">
        <lane id=":B_1_0" index="0" speed="13.41" length="20.80" shape="581.51,362.96,4.48 581.51,342.16,4.48" />
        <lane id=":B_1_1" index="1" speed="13.41" length="20.80" shape="584.71,362.96,4.48 584.71,342.16,4.48" />
    </edge>
    <edge id=":B_3" function="internal">
        <lane id=":B_3_0" index="0" speed="9.26" length="5.01" shape="584.71,362.96,4.48 585.42,358.00,4.48" />
    </edge>
    <edge id=":B_4" function="internal">
        <lane id=":B_4_0" index="0" speed="3.65" length="1.44" shape="584.71,362.96,4.48 585.51,361.76,4.48" />
    </edge>
    <edge id=":B_20" function="internal">
        <lane id=":B_20_0" index="0" speed="9.26" length="14.34" shape="585.42,358.00,4.48 585.46,357.71,4.48 587.71,353.96,4.48 591.46,351.71,4.48 596.71,350.96,4.48" />
    </edge>
    <edge id=":B_21" function="internal">
        <lane id=":B_21_0" index="0" speed="3.65" length="3.23" shape="585.51,361.76,4.48 586.31,361.36,4.48 587.11,361.76,4.48 587.91,362.96,4.48" />
    </edge>
    <edge id=":B_5" function="internal">
        <lane id=":B_5_0" index="0" speed="6.51" length="9.03" shape="596.71,357.36,4.48 594.26,357.71,4.48 592.51,358.76,4.48 591.46,360.51,4.48 591.11,362.96,4.48" />
    </edge>
    <edge id=":B_6" function="internal">
        <lane id=":B_6_0" index="0" speed="13.41" length="20.80" shape="596.71,357.36,4.48 575.91,357.36,4.30" />
        <lane id=":B_6_1" index="1" speed="13.41" length="20.80" shape="596.71,354.16,4.48 575.91,354.16,4.30" />
    </edge>
    <edge id=":B_8" function="internal">
        <lane id=":B_8_0" index="0" speed="9.26" length="5.01" shape="596.71,354.16,4.48 591.75,353.45,4.48" />
    </edge>
    <edge id=":B_9" function="internal">
        <lane id=":B_9_0" index="0" speed="3.65" length="1.44" shape="596.71,354.16,4.48 595.51,353.36,4.48" />
    </edge>
    <edge id=":B_22" function="internal">
        <lane id=":B_22_0" index="0" speed="9.26" length="14.34" shape="591.75,353.45,4.48 591.46,353.41,4.48 587.71,351.16,4.48 585.46,347.41,4.48 584.71,342.16,4.48" />
    </edge>
    <edge id=":B_23" function="internal">
        <lane id=":B_23_0" index="0" speed="3.65" length="3.23" shape="595.51,353.36,4.48 595.11,352.56,4.48 595.51,351.76,4.48 596.71,350.96,4.48" />
    </edge>
    <edge id=":B_10" function="internal">
        <lane id=":B_10_0" index="0" speed="6.51" length="9.03" shape="591.11,342.16,4.48 591.46,344.61,4.48 592.51,346.36,4.48 594.26,347.41,4.48 596.71,347.76,4.48" />
    </edge>
    <edge id=":B_11" function="internal">
        <lane id=":B_11_0" index="0" speed="13.41" length="20.80" shape="591.11,342.16,4.48 591.11,362.96,4.48" />
        <lane id=":B_11_1" index="1" speed="13.41" length="20.80" shape="587.91,342.16,4.48 587.91,362.96,4.48" />
    </edge>
    <edge id=":B_13" function="internal">
        <lane id=":B_13_0" index="0" speed="9.26" length="5.01" shape="587.91,342.16,4.48 587.20,347.13,4.43" />
    </edge>
    <edge id=":B_14" function="internal">
        <lane id=":B_14_0" index="0" speed="3.65" length="1.44" shape="587.91,342.16,4.48 587.11,343.36,4.48" />
    </edge>
    <edge id=":B_24" function="internal">
        <lane id=":B_24_0" index="0" speed="9.26" length="14.34" shape="587.20,347.13,4.43 587.16,347.41,4.43 584.91,351.16,4.39 581.16,353.41,4.35 575.91,354.16,4.30" />
    </edge>
    <edge id=":B_25" function="internal">
        <lane id=":B_25_0" index="0" speed="3.65" length="3.23" shape="587.11,343.36,4.48 586.31,343.76,4.48 585.51,343.36,4.48 584.71,342.16,4.48" />
    </edge>
    <edge id=":B_15" function="internal">
        <lane id=":B_15_0" index="0" speed="6.51" length="9.03" shape="575.91,347.76,4.30 578.36,347.41,4.35 580.11,346.36,4.39 581.16,344.61,4.43 581.51,342.16,4.48" />
    </edge>
    <edge id=":B_16" function="internal">
        <lane id=":B_16_0" index="0" speed="13.41" length="20.80" shape="575.91,347.76,4.30 596.71,347.76,4.48" />
        <lane id=":B_16_1" index="1" speed="13.41" length="20.80" shape="575.91,350.96,4.30 596.71,350.96,4.48" />
    </edge>
    <edge id=":B_18" function="internal">
        <lane id=":B_18_0" index="0" speed="9.26" length="5.01" shape="575.91,350.96,4.30 580.88,351.67,4.35" />
    </edge>
    <edge id=":B_19" function="internal">
        <lane id=":B_19_0" index="0" speed="3.65" length="1.44" shape="575.91,350.96,4.30 577.11,351.76,4.30" />
    </edge>
    <edge id=":B_26" function="internal">
        <lane id=":B_26_0" index="0" speed="9.26" length="14.34" shape="580.88,351.67,4.35 581.16,351.71,4.35 584.91,353.96,4.39 587.16,357.71,4.43 587.91,362.96,4.48" />
    </edge>
    <edge id=":B_27" function="internal">
        <lane id=":B_27_0" index="0" speed="3.65" length="3.23" shape="577.11,351.76,4.30 577.51,352.56,4.30 577.11,353.36,4.30 575.91,354.16,4.30" />
    </edge>
    <edge id=":BA_0" function="internal">
        <lane id=":BA_0_0" index="0" speed="3.65" length="4.67" shape="587.91,619.62,4.48 587.11,620.82,4.48 586.31,621.22,4.48 585.51,620.82,4.48 584.71,619.62,4.48" />
    </edge>
    <edge id=":BB_0" function="internal">
        <lane id=":BB_0_0" index="0" speed="3.65" length="4.67" shape="853.37,350.96,4.48 854.57,351.76,4.48 854.97,352.56,4.48 854.57,353.36,4.48 853.37,354.16,4.48" />
    </edge>
    <edge id=":BC_0" function="internal">
        <lane id=":BC_0_0" index="0" speed="3.65" length="4.67" shape="584.71,85.51,4.48 585.51,84.31,4.48 586.31,83.91,4.48 587.11,84.31,4.48 587.91,85.51,4.48" />
    </edge>
    <edge id=":C_0" function="internal">
        <lane id=":C_0_0" index="0" speed="6.51" length="9.03" shape="317.66,183.48,-7.47 317.31,181.03,-7.47 316.26,179.28,-7.47 314.51,178.23,-7.47 312.06,177.88,-7.47" />
    </edge>
    <edge id=":C_1" function="internal">
        <lane id=":C_1_0" index="0" speed="11.18" length="14.40" shape="317.66,183.48,-7.47 317.66,169.08,-7.47" />
    </edge>
    <edge id=":C_2" function="internal">
        <lane id=":C_2_0" index="0" speed="8.00" length="4.07" shape="317.66,183.48,-7.47 318.21,179.63,-7.47 318.30,179.48,-7.47" />
    </edge>
    <edge id=":C_3" function="internal">
        <lane id=":C_3_0" index="0" speed="3.65" length="1.44" shape="317.66,183.48,-7.47 318.46,182.28,-7.47" />
    </edge>
    <edge id=":C_16" function="internal">
        <lane id=":C_16_0" index="0" speed="8.00" length="10.13" shape="318.30,179.48,-7.47 319.86,176.88,-7.47 322.61,175.23,-7.47 326.46,174.68,-7.47" />
    </edge>
    <edge id=":C_17" function="internal">
        <lane id=":C_17_0" index="0" speed="3.65" length="3.23" shape="318.46,182.28,-7.47 319.26,181.88,-7.47 320.06,182.28,-7.47 320.86,183.48,-7.47" />
    </edge>
    <edge id=":C_4" function="internal">
        <lane id=":C_4_0" index="0" speed="6.51" length="9.03" shape="326.46,177.88,-7.47 324.01,178.23,-7.47 322.26,179.28,-7.47 321.21,181.03,-7.47 320.86,183.48,-7.47" />
    </edge>
    <edge id=":C_5" function="internal">
        <lane id=":C_5_0" index="0" speed="11.18" length="14.40" shape="326.46,177.88,-7.47 312.06,177.88,-7.47" />
    </edge>
    <edge id=":C_6" function="internal">
        <lane id=":C_6_0" index="0" speed="8.00" length="4.07" shape="326.46,177.88,-7.47 322.61,177.33,-7.47 322.45,177.24,-7.47" />
    </edge>
    <edge id=":C_7" function="internal">
        <lane id=":C_7_0" index="0" speed="3.65" length="1.44" shape="326.46,177.88,-7.47 325.26,177.08,-7.47" />
    </edge>
    <edge id=":C_18" function="internal">
        <lane id=":C_18_0" index="0" speed="8.00" length="10.13" shape="322.45,177.24,-7.47 319.86,175.68,-7.47 318.21,172.93,-7.47 317.66,169.08,-7.47" />
    </edge>
    <edge id=":C_19" function="internal">
        <lane id=":C_19_0" index="0" speed="3.65" length="3.23" shape="325.26,177.08,-7.47 324.86,176.28,-7.47 325.26,175.48,-7.47 326.46,174.68,-7.47" />
    </edge>
    <edge id=":C_8" function="internal">
        <lane id=":C_8_0" index="0" speed="6.51" length="9.03" shape="320.86,169.08,-7.47 321.21,171.53,-7.47 322.26,173.28,-7.47 324.01,174.33,-7.47 326.46,174.68,-7.47" />
    </edge>
    <edge id=":C_9" function="internal">
        <lane id=":C_9_0" index="0" speed="11.18" length="14.40" shape="320.86,169.08,-7.47 320.86,183.48,-7.47" />
    </edge>
    <edge id=":C_10" function="internal">
        <lane id=":C_10_0" index="0" speed="8.00" length="4.07" shape="320.86,169.08,-7.47 320.31,172.93,-7.47 320.22,173.08,-7.47" />
    </edge>
    <edge id=":C_11" function="internal">
        <lane id=":C_11_0" index="0" speed="3.65" length="1.44" shape="320.86,169.08,-7.47 320.06,170.28,-7.47" />
    </edge>
    <edge id=":C_20" function="internal">
        <lane id=":C_20_0" index="0" speed="8.00" length="10.13" shape="320.22,173.08,-7.47 318.66,175.68,-7.47 315.91,177.33,-7.47 312.06,177.88,-7.47" />
    </edge>
    <edge id=":C_21" function="internal">
        <lane id=":C_21_0" index="0" speed="3.65" length="3.23" shape="320.06,170.28,-7.47 319.26,170.68,-7.47 318.46,170.28,-7.47 317.66,169.08,-7.47" />
    </edge>
    <edge id=":C_12" function="internal">
        <lane id=":C_12_0" index="0" speed="6.51" length="9.03" shape="312.06,174.68,-7.47 314.51,174.33,-7.47 316.26,173.28,-7.47 317.31,171.53,-7.47 317.66,169.08,-7.47" />
    </edge>
    <edge id=":C_13" function="internal">
        <lane id=":C_13_0" index="0" speed="11.18" length="14.40" shape="312.06,174.68,-7.47 326.46,174.68,-7.47" />
    </edge>
    <edge id=":C_14" function="internal">
        <lane id=":C_14_0" index="0" speed="8.00" length="4.07" shape="312.06,174.68,-7.47 315.91,175.23,-7.47 316.06,175.32,-7.47" />
    </edge>
    <edge id=":C_15" function="internal">
        <lane id=":C_15_0" index="0" speed="3.65" length="1.44" shape="312.06,174.68,-7.47 313.26,175.48,-7.47" />
    </edge>
    <edge id=":C_22" function="internal">
        <lane id=":C_22_0" index="0" speed="8.00" length="10.13" shape="316.06,175.32,-7.47 318.66,176.88,-7.47 320.31,179.63,-7.47 320.86,183.48,-7.47" />
    </edge>
    <edge id=":C_23" function="internal">
        <lane id=":C_23_0" index="0" speed="3.65" length="3.23" shape="313.26,175.48,-7.47 313.66,176.28,-7.47 313.26,177.08,-7.47 312.06,177.88,-7.47" />
    </edge>
    <edge id=":CA_0" function="internal">
        <lane id=":CA_0_0" index="0" speed="3.65" length="4.67" shape="495.54,174.68,-7.47 496.74,175.48,-7.47 497.14,176.28,-7.47 496.74,177.08,-7.47 495.54,177.88,-7.47" />
    </edge>
    <edge id=":CB_0" function="internal">
        <lane id=":CB_0_0" index="0" speed="3.65" length="4.67" shape="317.66,0.00,-7.47 318.46,-1.20,-7.47 319.26,-1.60,-7.47 320.06,-1.20,-7.47 320.86,0.00,-7.47" />
    </edge>
    <edge id=":CC_0" function="internal">
        <lane id=":CC_0_0" index="0" speed="3.65" length="4.67" shape="142.97,177.88,-7.47 141.77,177.08,-7.47 141.37,176.28,-7.47 141.77,175.48,-7.47 142.97,174.68,-7.47" />
    </edge>
    <edge id=":D_0" function="internal">
        <lane id=":D_0_0" index="0" speed="6.51" length="9.03" shape="200.85,362.96,-3.43 200.50,360.51,-3.43 199.45,358.76,-3.43 197.70,357.71,-3.43 195.25,357.36,-3.43" />
    </edge>
    <edge id=":D_1" function="internal">
        <lane id=":D_1_0" index="0" speed="13.41" length="20.80" shape="200.85,362.96,-3.43 200.85,342.16,-3.43" />
        <lane id=":D_1_1" index="1" speed="13.41" length="20.80" shape="204.05,362.96,-3.43 204.05,342.16,-3.43" />
    </edge>
    <edge id=":D_3" function="internal">
        <lane id=":D_3_0" index="0" speed="9.26" length="5.01" shape="204.05,362.96,-3.43 204.76,358.00,-3.43" />
    </edge>
    <edge id=":D_4" function="internal">
        <lane id=":D_4_0" index="0" speed="3.65" length="1.44" shape="204.05,362.96,-3.43 204.85,361.76,-3.43" />
    </edge>
    <edge id=":D_20" function="internal">
        <lane id=":D_20_0" index="0" speed="9.26" length="14.34" shape="204.76,358.00,-3.43 204.80,357.71,-3.43 207.05,353.96,-3.43 210.80,351.71,-3.43 216.05,350.96,-3.43" />
    </edge>
    <edge id=":D_21" function="internal">
        <lane id=":D_21_0" index="0" speed="3.65" length="3.23" shape="204.85,361.76,-3.43 205.65,361.36,-3.43 206.45,361.76,-3.43 207.25,362.96,-3.43" />
    </edge>
    <edge id=":D_5" function="internal">
        <lane id=":D_5_0" index="0" speed="6.51" length="9.03" shape="216.05,357.36,-3.43 213.60,357.71,-3.43 211.85,358.76,-3.43 210.80,360.51,-3.43 210.45,362.96,-3.43" />
    </edge>
    <edge id=":D_6" function="internal">
        <lane id=":D_6_0" index="0" speed="13.41" length="20.80" shape="216.05,357.36,-3.43 195.25,357.36,-3.43" />
        <lane id=":D_6_1" index="1" speed="13.41" length="20.80" shape="216.05,354.16,-3.43 195.25,354.16,-3.43" />
    </edge>
    <edge id=":D_8" function="internal">
        <lane id=":D_8_0" index="0" speed="9.26" length="5.01" shape="216.05,354.16,-3.43 211.09,353.45,-3.43" />
    </edge>
    <edge id=":D_9" function="internal">
        <lane id=":D_9_0" index="0" speed="3.65" length="1.44" shape="216.05,354.16,-3.43 214.85,353.36,-3.43" />
    </edge>
    <edge id=":D_22" function="internal">
        <lane id=":D_22_0" index="0" speed="9.26" length="14.34" shape="211.09,353.45,-3.43 210.80,353.41,-3.43 207.05,351.16,-3.43 204.80,347.41,-3.43 204.05,342.16,-3.43" />
    </edge>
    <edge id=":D_23" function="internal">
        <lane id=":D_23_0" index="0" speed="3.65" length="3.23" shape="214.85,353.36,-3.43 214.45,352.56,-3.43 214.85,351.76,-3.43 216.05,350.96,-3.43" />
    </edge>
    <edge id=":D_10" function="internal">
        <lane id=":D_10_0" index="0" speed="6.51" length="9.03" shape="210.45,342.16,-3.43 210.80,344.61,-3.43 211.85,346.36,-3.43 213.60,347.41,-3.43 216.05,347.76,-3.43" />
    </edge>
    <edge id=":D_11" function="internal">
        <lane id=":D_11_0" index="0" speed="13.41" length="20.80" shape="210.45,342.16,-3.43 210.45,362.96,-3.43" />
        <lane id=":D_11_1" index="1" speed="13.41" length="20.80" shape="207.25,342.16,-3.43 207.25,362.96,-3.43" />
    </edge>
    <edge id=":D_13" function="internal">
        <lane id=":D_13_0" index="0" speed="9.26" length="5.01" shape="207.25,342.16,-3.43 206.54,347.13,-3.43" />
    </edge>
    <edge id=":D_14" function="internal">
        <lane id=":D_14_0" index="0" speed="3.65" length="1.44" shape="207.25,342.16,-3.43 206.45,343.36,-3.43" />
    </edge>
    <edge id=":D_24" function="internal">
        <lane id=":D_24_0" index="0" speed="9.26" length="14.34" shape="206.54,347.13,-3.43 206.50,347.41,-3.43 204.25,351.16,-3.43 200.50,353.41,-3.43 195.25,354.16,-3.43" />
    </edge>
    <edge id=":D_25" function="internal">
        <lane id=":D_25_0" index="0" speed="3.65" length="3.23" shape="206.45,343.36,-3.43 205.65,343.76,-3.43 204.85,343.36,-3.43 204.05,342.16,-3.43" />
    </edge>
    <edge id=":D_15" function="internal">
        <lane id=":D_15_0" index="0" speed="6.51" length="9.03" shape="195.25,347.76,-3.43 197.70,347.41,-3.43 199.45,346.36,-3.43 200.50,344.61,-3.43 200.85,342.16,-3.43" />
    </edge>
    <edge id=":D_16" function="internal">
        <lane id=":D_16_0" index="0" speed="13.41" length="20.80" shape="195.25,347.76,-3.43 216.05,347.76,-3.43" />
        <lane id=":D_16_1" index="1" speed="13.41" length="20.80" shape="195.25,350.96,-3.43 216.05,350.96,-3.43" />
    </edge>
    <edge id=":D_18" function="internal">
        <lane id=":D_18_0" index="0" speed="9.26" length="5.01" shape="195.25,350.96,-3.43 200.22,351.67,-3.43" />
    </edge>
    <edge id=":D_19" function="internal">
        <lane id=":D_19_0" index="0" speed="3.65" length="1.44" shape="195.25,350.96,-3.43 196.45,351.76,-3.43" />
    </edge>
    <edge id=":D_26" function="internal">
        <lane id=":D_26_0" index="0" speed="9.26" length="14.34" shape="200.22,351.67,-3.43 200.50,351.71,-3.43 204.25,353.96,-3.43 206.50,357.71,-3.43 207.25,362.96,-3.43" />
    </edge>
    <edge id=":D_27" function="internal">
        <lane id=":D_27_0" index="0" speed="3.65" length="3.23" shape="196.45,351.76,-3.43 196.85,352.56,-3.43 196.45,353.36,-3.43 195.25,354.16,-3.43" />
    </edge>
    <edge id=":DA_0" function="internal">
        <lane id=":DA_0_0" index="0" speed="3.65" length="4.67" shape="204.05,238.96,-3.43 204.85,237.76,-3.43 205.65,237.36,-3.43 206.45,237.76,-3.43 207.25,238.96,-3.43" />
    </edge>
    <edge id=":DB_0" function="internal">
        <lane id=":DB_0_0" index="0" speed="3.65" length="4.67" shape="92.05,354.16,-3.43 90.85,353.36,-3.43 90.45,352.56,-3.43 90.85,351.76,-3.43 92.05,350.96,-3.43" />
    </edge>
    <edge id=":DC_0" function="internal">
        <lane id=":DC_0_0" index="0" speed="3.65" length="4.67" shape="207.25,466.17,-3.43 206.45,467.37,-3.43 205.65,467.77,-3.43 204.85,467.37,-3.43 204.05,466.17,-3.43" />
    </edge>
    <edge id=":TL_0" function="internal">
        <lane id=":TL_0_0" index="0" speed="6.51" length="9.03" shape="317.66,362.96,-0.04 317.31,360.51,-0.03 316.26,358.76,-0.02 314.51,357.71,-0.01 312.06,357.36" />
    </edge>
    <edge id=":TL_1" function="internal">
        <lane id=":TL_1_0" index="0" speed="11.18" length="20.80" shape="317.66,362.96,-0.04 317.66,342.16" />
    </edge>
    <edge id=":TL_2" function="internal">
        <lane id=":TL_2_0" index="0" speed="6.51" length="9.03" shape="326.46,357.36,0.12 324.01,357.71,0.08 322.26,358.76,0.04 321.21,360.51,0.00 320.86,362.96,-0.04" />
    </edge>
    <edge id=":TL_3" function="internal">
        <lane id=":TL_3_0" index="0" speed="13.41" length="14.40" shape="326.46,357.36,0.12 312.06,357.36" />
        <lane id=":TL_3_1" index="1" speed="13.41" length="14.40" shape="326.46,354.16,0.12 312.06,354.16" />
    </edge>
    <edge id=":TL_5" function="internal">
        <lane id=":TL_5_0" index="0" speed="8.67" length="3.71" shape="326.46,354.16,0.12 322.81,353.45,0.09" />
    </edge>
    <edge id=":TL_12" function="internal">
        <lane id=":TL_12_0" index="0" speed="8.67" length="13.14" shape="322.81,353.45,0.09 322.61,353.41,0.09 319.86,351.16,0.07 318.21,347.41,0.04 317.66,342.16" />
    </edge>
    <edge id=":TL_6" function="internal">
        <lane id=":TL_6_0" index="0" speed="6.51" length="9.03" shape="320.86,342.16 321.21,344.61,0.03 322.26,346.36,0.06 324.01,347.41,0.09 326.46,347.76,0.12" />
    </edge>
    <edge id=":TL_7" function="internal">
        <lane id=":TL_7_0" index="0" speed="11.18" length="20.80" shape="320.86,342.16 320.86,362.96,-0.04" />
    </edge>
    <edge id=":TL_8" function="internal">
        <lane id=":TL_8_0" index="0" speed="6.51" length="9.03" shape="312.06,347.76 314.51,347.41 316.26,346.36 317.31,344.61 317.66,342.16" />
    </edge>
    <edge id=":TL_9" function="internal">
        <lane id=":TL_9_0" index="0" speed="13.41" length="14.40" shape="312.06,347.76 326.46,347.76,0.12" />
        <lane id=":TL_9_1" index="1" speed="13.41" length="14.40" shape="312.06,350.96 326.46,350.96,0.12" />
    </edge>
    <edge id=":TL_11" function="internal">
        <lane id=":TL_11_0" index="0" speed="8.67" length="3.71" shape="312.06,350.96 315.70,351.67,-0.01" />
    </edge>
    <edge id=":TL_13" function="internal">
        <lane id=":TL_13_0" index="0" speed="8.67" length="13.14" shape="315.70,351.67,-0.01 315.91,351.71,-0.01 318.66,353.96,-0.02 320.31,357.71,-0.03 320.86,362.96,-0.04" />
    </edge>

    <edge id="A2AA" from="A" to="AA" priority="-1">
        <lane id="A2AA_0" index="0" speed="11.18" length="312.06" shape="312.06,673.42,-1.36 0.00,673.42,-1.36" />
    </edge>
    <edge id="A2AB" from="A" to="AB" priority="-1">
        <lane id="A2AB_0" index="0" speed="11.18" length="312.06" shape="320.86,679.02,-1.36 320.86,991.08,-1.36" />
    </edge>
    <edge id="A2AC" from="A" to="AC" priority="-1">
        <lane id="A2AC_0" index="0" speed="11.18" length="312.06" shape="326.46,670.22,-1.36 638.51,670.22,-1.36" />
    </edge>
    <edge id="A2TL" from="A" to="TL" priority="-1">
        <lane id="A2TL_0" index="0" speed="11.18" length="301.66" shape="317.66,664.62,-1.33 317.66,362.96,-0.04" />
    </edge>
    <edge id="AA2A" from="AA" to="A" priority="-1">
        <lane id="AA2A_0" index="0" speed="11.18" length="312.06" shape="0.00,670.22,-1.36 312.06,670.22,-1.36" />
    </edge>
    <edge id="AB2A" from="AB" to="A" priority="-1">
        <lane id="AB2A_0" index="0" speed="11.18" length="312.06" shape="317.66,991.08,-1.36 317.66,679.02,-1.36" />
    </edge>
    <edge id="AC2A" from="AC" to="A" priority="-1">
        <lane id="AC2A_0" index="0" speed="11.18" length="312.06" shape="638.51,673.42,-1.36 326.46,673.42,-1.36" />
    </edge>
    <edge id="B2BA" from="B" to="BA" priority="-1">
        <lane id="B2BA_0" index="0" speed="13.41" length="256.66" shape="591.11,362.96,4.48 591.11,619.62,4.48" />
        <lane id="B2BA_1" index="1" speed="13.41" length="256.66" shape="587.91,362.96,4.48 587.91,619.62,4.48" />
    </edge>
    <edge id="B2BB" from="B" to="BB" priority="-1">
        <lane id="B2BB_0" index="0" speed="13.41" length="256.66" shape="596.71,347.76,4.48 853.37,347.76,4.48" />
        <lane id="B2BB_1" index="1" speed="13.41" length="256.66" shape="596.71,350.96,4.48 853.37,350.96,4.48" />
    </edge>
    <edge id="B2BC" from="B" to="BC" priority="-1">
        <lane id="B2BC_0" index="0" speed="13.41" length="256.66" shape="581.51,342.16,4.48 581.51,85.51,4.48" />
        <lane id="B2BC_1" index="1" speed="13.41" length="256.66" shape="584.71,342.16,4.48 584.71,85.51,4.48" />
    </edge>
    <edge id="B2TL" from="B" to="TL" priority="-1">
        <lane id="B2TL_0" index="0" speed="13.41" length="249.49" shape="575.91,357.36,4.30 326.46,357.36,0.12" />
        <lane id="B2TL_1" index="1" speed="13.41" length="249.49" shape="575.91,354.16,4.30 326.46,354.16,0.12" />
    </edge>
    <edge id="BA2B" from="BA" to="B" priority="-1">
        <lane id="BA2B_0" index="0" speed="13.41" length="256.66" shape="581.51,619.62,4.48 581.51,362.96,4.48" />
        <lane id="BA2B_1" index="1" speed="13.41" length="256.66" shape="584.71,619.62,4.48 584.71,362.96,4.48" />
    </edge>
    <edge id="BB2B" from="BB" to="B" priority="-1">
        <lane id="BB2B_0" index="0" speed="13.41" length="256.66" shape="853.37,357.36,4.48 596.71,357.36,4.48" />
        <lane id="BB2B_1" index="1" speed="13.41" length="256.66" shape="853.37,354.16,4.48 596.71,354.16,4.48" />
    </edge>
    <edge id="BC2B" from="BC" to="B" priority="-1">
        <lane id="BC2B_0" index="0" speed="13.41" length="256.66" shape="591.11,85.51,4.48 591.11,342.16,4.48" />
        <lane id="BC2B_1" index="1" speed="13.41" length="256.66" shape="587.91,85.51,4.48 587.91,342.16,4.48" />
    </edge>
    <edge id="C2CA" from="C" to="CA" priority="-1">
        <lane id="C2CA_0" index="0" speed="11.18" length="169.08" shape="326.46,174.68,-7.47 495.54,174.68,-7.47" />
    </edge>
    <edge id="C2CB" from="C" to="CB" priority="-1">
        <lane id="C2CB_0" index="0" speed="11.18" length="169.08" shape="317.66,169.08,-7.47 317.66,0.00,-7.47" />
    </edge>
    <edge id="C2CC" from="C" to="CC" priority="-1">
        <lane id="C2CC_0" index="0" speed="11.18" length="169.08" shape="312.06,177.88,-7.47 142.97,177.88,-7.47" />
    </edge>
    <edge id="C2TL" from="C" to="TL" priority="-1">
        <lane id="C2TL_0" index="0" speed="11.18" length="158.86" shape="320.86,183.48,-7.47 320.86,342.16" />
    </edge>
    <edge id="CA2C" from="CA" to="C" priority="-1">
        <lane id="CA2C_0" index="0" speed="11.18" length="169.08" shape="495.54,177.88,-7.47 326.46,177.88,-7.47" />
    </edge>
    <edge id="CB2C" from="CB" to="C" priority="-1">
        <lane id="CB2C_0" index="0" speed="11.18" length="169.08" shape="320.86,0.00,-7.47 320.86,169.08,-7.47" />
    </edge>
    <edge id="CC2C" from="CC" to="C" priority="-1">
        <lane id="CC2C_0" index="0" speed="11.18" length="169.08" shape="142.97,174.68,-7.47 312.06,174.68,-7.47" />
    </edge>
    <edge id="D2DA" from="D" to="DA" priority="-1">
        <lane id="D2DA_0" index="0" speed="13.41" length="103.20" shape="200.85,342.16,-3.43 200.85,238.96,-3.43" />