<net xmlns:xsi="http://www.w3.org/2001/XMLSchema-instance" version="1.9" junctionCornerDetail="5" limitTurnSpeed="5.50" xsi:noNamespaceSchemaLocation="http://sumo.dlr.de/xsd/net_file.xsd">

    <location netOffset="613.13,599.77" convBoundary="0.00,0.00,1247.07,1214.70" origBoundary="-613.13,-599.77,633.94,614.94" projParameter="!" />

    <edge id=":A_0" function="internal">
        <lane id=":A_0_0" index="0" speed="6.51" length="9.03" shape="605.13,920.84,5.44 604.78,918.39,5.44 603.73,916.64,5.44 601.98,915.59,5.44 599.53,915.24,5.44" />
    </edge>
    <edge id=":A_1" function="internal">
        <lane id=":A_1_0" index="0" speed="13.41" length="27.20" shape="605.13,920.84,5.44 605.13,893.64,5.44" />
        <lane id=":A_1_1" index="1" speed="13.41" length="27.20" shape="608.33,920.84,5.44 608.33,893.64,5.44" />
        <lane id=":A_1_2" index="2" speed="13.41" length="27.20" shape="611.53,920.84,5.44 611.53,893.64,5.44" />
    </edge>
    <edge id=":A_4" function="internal">
        <lane id=":A_4_0" index="0" speed="10.36" length="5.01" shape="611.53,920.84,5.44 612.24,915.87,5.44" />
    </edge>
    <edge id=":A_5" function="internal">
        <lane id=":A_5_0" index="0" speed="3.65" length="1.44" shape="611.53,920.84,5.44 612.33,919.64,5.44" />
    </edge>
    <edge id=":A_24" function="internal">
        <lane id=":A_24_0" index="0" speed="10.36" length="19.50" shape="612.24,915.87,5.44 612.48,914.19,5.44 615.33,909.44,5.44 620.08,906.59,5.44 626.73,905.64,5.44" />
    </edge>
    <edge id=":A_25" function="internal">
        <lane id=":A_25_0" index="0" speed="3.65" length="3.23" shape="612.33,919.64,5.44 613.13,919.24,5.44 613.93,919.64,5.44 614.73,920.84,5.44" />
    </edge>
    <edge id=":A_6" function="internal">
        <lane id=":A_6_0" index="0" speed="6.51" length="9.03" shape="626.73,915.24,5.44 624.28,915.59,5.44 622.53,916.64,5.44 621.48,918.39,5.44 621.13,920.84,5.44" />
    </edge>
    <edge id=":A_7" function="internal">
        <lane id=":A_7_0" index="0" speed="13.41" length="27.20" shape="626.73,915.24,5.44 599.53,915.24,5.44" />
        <lane id=":A_7_1" index="1" speed="13.41" length="27.20" shape="626.73,912.04,5.44 599.53,912.04,5.44" />
        <lane id=":A_7_2" index="2" speed="13.41" length="27.20" shape="626.73,908.84,5.44 599.53,908.84,5.44" />
    </edge>
    <edge id=":A_10" function="internal">
        <lane id=":A_10_0" index="0" speed="10.36" length="5.01" shape="626.73,908.84,5.44 621.76,908.13,5.44" />
    </edge>
    <edge id=":A_11" function="internal">
        <lane id=":A_11_0" index="0" speed="3.65" length="1.44" shape="626.73,908.84,5.44 625.53,908.04,5.44" />
    </edge>
    <edge id=":A_26" function="internal">
        <lane id=":A_26_0" index="0" speed="10.36" length="19.50" shape="621.76,908.13,5.44 620.08,907.89,5.44 615.33,905.04,5.44 612.48,900.29,5.44 611.53,893.64,5.44" />
    </edge>
    <edge id=":A_27" function="internal">
        <lane id=":A_27_0" index="0" speed="3.65" length="3.23" shape="625.53,908.04,5.44 625.13,907.24,5.44 625.53,906.44,5.44 626.73,905.64,5.44" />
    </edge>
    <edge id=":A_12" function="internal">
        <lane id=":A_12_0" index="0" speed="6.51" length="9.03" shape="621.13,893.64,5.44 621.48,896.09,5.44 622.53,897.84,5.44 624.28,898.89,5.44 626.73,899.24,5.44" />
    </edge>
    <edge id=":A_13" function="internal">
        <lane id=":A_13_0" index="0" speed="13.41" length="27.20" shape="621.13,893.64,5.44 621.13,920.84,5.44" />
        <lane id=":A_13_1" index="1" speed="13.41" length="27.20" shape="617.93,893.64,5.44 617.93,920.84,5.44" />
        <lane id=":A_13_2" index="2" speed="13.41" length="27.20" shape="614.73,893.64,5.44 614.73,920.84,5.44" />
    </edge>
    <edge id=":A_16" function="internal">
        <lane id=":A_16_0" index="0" speed="10.36" length="5.01" shape="614.73,893.64,5.44 614.02,898.60,5.44" />
    </edge>
    <edge id=":A_17" function="internal">
        <lane id=":A_17_0" index="0" speed="3.65" length="1.44" shape="614.73,893.64,5.44 613.93,894.84,5.44" />
    </edge>
    <edge id=":A_28" function="internal">
        <lane id=":A_28_0" index="0" speed="10.36" length="19.50" shape="614.02,898.60,5.44 613.78,900.29,5.44 610.93,905.04,5.44 606.18,907.89,5.44 599.53,908.84,5.44" />
    </edge>
    <edge id=":A_29" function="internal">
        <lane id=":A_29_0" index="0" speed="3.65" length="3.23" shape="613.93,894.84,5.44 613.13,895.24,5.44 612.33,894.84,5.44 611.53,893.64,5.44" />
    </edge>
    <edge id=":A_18" function="internal">
        <lane id=":A_18_0" index="0" speed="6.51" length="9.03" shape="599.53,899.24,5.44 601.98,898.89,5.44 603.73,897.84,5.44 604.78,896.09,5.44 605.13,893.64,5.44" />
    </edge>
    <edge id=":A_19" function="internal">
        <lane id=":A_19_0" index="0" speed="13.41" length="27.20" shape="599.53,899.24,5.44 626.73,899.24,5.44" />
        <lane id=":A_19_1" index="1" speed="13.41" length="27.20" shape="599.53,902.44,5.44 626.73,902.44,5.44" />
        <lane id=":A_19_2" index="2" speed="13.41" length="27.20" shape="599.53,905.64,5.44 626.73,905.64,5.44" />
    </edge>
    <edge id=":A_22" function="internal">
        <lane id=":A_22_0" index="0" speed="10.36" length="5.01" shape="599.53,905.64,5.44 604.49,906.34,5.44" />
    </edge>
    <edge id=":A_23" function="internal">
        <lane id=":A_23_0" index="0" speed="3.65" length="1.44" shape="599.53,905.64,5.44 600.73,906.44,5.44" />
    </edge>
    <edge id=":A_30" function="internal">
        <lane id=":A_30_0" index="0" speed="10.36" length="19.50" shape="604.49,906.34,5.44 606.18,906.59,5.44 610.93,909.44,5.44 613.78,914.19,5.44 614.73,920.84,5.44" />
    </edge>
    <edge id=":A_31" function="internal">
        <lane id=":A_31_0" index="0" speed="3.65" length="3.23" shape="600.73,906.44,5.44 601.13,907.24,5.44 600.73,908.04,5.44 599.53,908.84,5.44" />
    </edge>
    <edge id=":AA_0" function="internal">
        <lane id=":AA_0_0" index="0" speed="3.65" length="4.67" shape="305.66,908.84,5.44 304.46,908.04,5.44 304.06,907.24,5.44 304.46,906.44,5.44 305.66,905.64,5.44" />
    </edge>
    <edge id=":AB_0" function="internal">
        <lane id=":AB_0_0" index="0" speed="3.65" length="4.67" shape="614.73,1214.70,5.44 613.93,1215.90,5.44 613.13,1216.30,5.44 612.33,1215.90,5.44 611.53,1214.70,5.44" />
    </edge>
    <edge id=":AC_0" function="internal">
        <lane id=":AC_0_0" index="0" speed="3.65" length="4.67" shape="920.60,905.64,5.44 921.80,906.44,5.44 922.20,907.24,5.44 921.80,908.04,5.44 920.60,908.84,5.44" />
    </edge>
    <edge id=":B_0" function="internal">
        <lane id=":B_0_0" index="0" speed="6.51" length="9.03" shape="918.90,616.57,-2.71 918.55,614.12,-2.67 917.50,612.37,-2.63 915.75,611.32,-2.60 913.30,610.97,-2.56" />
    </edge>
    <edge id=":B_1" function="internal">
        <lane id=":B_1_0" index="0" speed="13.41" length="30.62" shape="918.90,616.57,-2.71 919.40,607.48,-2.71 920.50,601.26,-2.71 921.60,595.10,-2.71 922.10,586.17,-2.71" />
        <lane id=":B_1_1" index="1" speed="13.41" length="30.62" shape="922.10,616.57,-2.71 922.60,607.48,-2.71 923.70,601.26,-2.71 924.80,595.10,-2.71 925.30,586.17,-2.71" />
        <lane id=":B_1_2" index="2" speed="13.41" length="30.62" shape="925.30,616.57,-2.71 925.80,607.48,-2.71 926.90,601.26,-2.71 928.00,595.10,-2.71 928.50,586.17,-2.71" />
    </edge>
    <edge id=":B_4" function="internal">
        <lane id=":B_4_0" index="0" speed="11.36" length="7.98" shape="928.50,616.57,-2.71 929.63,608.66,-2.71" />
    </edge>
    <edge id=":B_5" function="internal">
        <lane id=":B_5_0" index="0" speed="3.65" length="1.44" shape="928.50,616.57,-2.71 929.30,615.37,-2.71" />
    </edge>
    <edge id=":B_25" function="internal">
        <lane id=":B_25_0" index="0" speed="11.36" length="21.69" shape="929.63,608.66,-2.71 929.65,608.52,-2.71 933.10,602.77,-2.71 938.85,599.32,-2.71 946.90,598.17,-2.71" />
    </edge>
    <edge id=":B_26" function="internal">
        <lane id=":B_26_0" index="0" speed="3.65" length="3.23" shape="929.30,615.37,-2.71 930.10,614.97,-2.71 930.90,615.37,-2.71 931.70,616.57,-2.71" />
    </edge>
    <edge id=":B_6" function="internal">
        <lane id=":B_6_0" index="0" speed="7.33" length="11.73" shape="946.90,610.97,-2.71 943.05,611.32,-2.71 940.30,612.37,-2.71 938.65,614.12,-2.71 938.10,616.57,-2.71" />
    </edge>
    <edge id=":B_7" function="internal">
        <lane id=":B_7_0" index="0" speed="13.41" length="33.60" shape="946.90,610.97,-2.71 913.30,610.97,-2.56" />
        <lane id=":B_7_1" index="1" speed="13.41" length="33.60" shape="946.90,607.77,-2.71 913.30,607.77,-2.56" />
        <lane id=":B_7_2" index="2" speed="13.41" length="33.60" shape="946.90,604.57,-2.71 913.30,604.57,-2.56" />
        <lane id=":B_7_3" index="3" speed="13.41" length="33.60" shape="946.90,601.37,-2.71 913.30,601.37,-2.56" />
    </edge>
    <edge id=":B_11" function="internal">
        <lane id=":B_11_0" index="0" speed="10.88" length="6.03" shape="946.90,601.37,-2.71 940.91,600.66,-2.71" />
    </edge>
    <edge id=":B_12" function="internal">
        <lane id=":B_12_0" index="0" speed="3.65" length="1.44" shape="946.90,601.37,-2.71 945.70,600.57,-2.71" />
    </edge>
    <edge id=":B_27" function="internal">
        <lane id=":B_27_0" index="0" speed="10.88" length="21.12" shape="940.91,600.66,-2.71 938.85,600.42,-2.71 933.10,597.57,-2.71 929.65,592.82,-2.71 928.50,586.17,-2.71" />
    </edge>
    <edge id=":B_28" function="internal">
        <lane id=":B_28_0" index="0" speed="3.65" length="3.23" shape="945.70,600.57,-2.71 945.30,599.77,-2.71 945.70,598.97,-2.71 946.90,598.17,-2.71" />
    </edge>
    <edge id=":B_13" function="internal">
        <lane id=":B_13_0" index="0" speed="6.51" length="9.03" shape="941.30,586.17,-2.71 941.65,588.62,-2.71 942.70,590.37,-2.71 944.45,591.42,-2.71 946.90,591.77,-2.71" />
    </edge>
    <edge id=":B_14" function="internal">
        <lane id=":B_14_0" index="0" speed="13.41" length="30.62" shape="941.30,586.17,-2.71 940.80,595.26,-2.71 939.70,601.47,-2.71 938.60,607.64,-2.71 938.10,616.57,-2.71" />
        <lane id=":B_14_1" index="1" speed="13.41" length="30.62" shape="938.10,586.17,-2.71 937.60,595.26,-2.71 936.50,601.47,-2.71 935.40,607.64,-2.71 934.90,616.57,-2.71" />
        <lane id=":B_14_2" index="2" speed="13.41" length="30.62" shape="934.90,586.17,-2.71 934.40,595.26,-2.71 933.30,601.47,-2.71 932.20,607.64,-2.71 931.70,616.57,-2.71" />
    </edge>
    <edge id=":B_17" function="internal">
        <lane id=":B_17_0" index="0" speed="10.88" length="6.09" shape="931.70,586.17,-2.71 930.66,592.17,-2.67" />
    </edge>
    <edge id=":B_18" function="internal">
        <lane id=":B_18_0" index="0" speed="3.65" length="1.44" shape="931.70,586.17,-2.71 930.90,587.37,-2.71" />
    </edge>
    <edge id=":B_29" function="internal">
        <lane id=":B_29_0" index="0" speed="10.88" length="21.05" shape="930.66,592.17,-2.67 930.55,592.82,-2.67 927.10,597.57,-2.64 921.35,600.42,-2.60 913.30,601.37,-2.56" />
    </edge>
    <edge id=":B_30" function="internal">
        <lane id=":B_30_0" index="0" speed="3.65" length="3.23" shape="930.90,587.37,-2.71 930.10,587.77,-2.71 929.30,587.37,-2.71 928.50,586.17,-2.71" />
    </edge>
    <edge id=":B_19" function="internal">
        <lane id=":B_19_0" index="0" speed="7.33" length="11.73" shape="913.30,591.77,-2.56 917.15,591.42,-2.61 919.90,590.37,-2.64 921.55,588.62,-2.67 922.10,586.17,-2.71" />
    </edge>
    <edge id=":B_20" function="internal">
        <lane id=":B_20_0" index="0" speed="13.41" length="33.60" shape="913.30,591.77,-2.56 946.90,591.77,-2.71" />
        <lane id=":B_20_1" index="1" speed="13.41" length="33.60" shape="913.30,594.97,-2.56 946.90,594.97,-2.71" />
        <lane id=":B_20_2" index="2" speed="13.41" length="33.60" shape="913.30,598.17,-2.56 946.90,598.17,-2.71" />
    </edge>
    <edge id=":B_23" function="internal">
        <lane id=":B_23_0" index="0" speed="11.36" length="5.01" shape="913.30,598.17,-2.56 918.26,598.88,-2.59" />
    </edge>
    <edge id=":B_24" function="internal">
        <lane id=":B_24_0" index="0" speed="3.65" length="1.44" shape="913.30,598.17,-2.56 914.50,598.97,-2.56" />
    </edge>
    <edge id=":B_31" function="internal">
        <lane id=":B_31_0" index="0" speed="11.36" length="24.66" shape="918.26,598.88,-2.59 921.35,599.32,-2.60 927.10,602.77,-2.63 930.55,608.52,-2.67 931.70,616.57,-2.71" />
    </edge>
    <edge id=":B_32" function="internal">
        <lane id=":B_32_0" index="0" speed="3.65" length="3.23" shape="914.50,598.97,-2.56 914.90,599.77,-2.56 914.50,600.57,-2.56 913.30,601.37,-2.56" />
    </edge>
    <edge id=":BA_0" function="internal">
        <lane id=":BA_0_0" index="0" speed="3.65" length="4.67" shape="931.70,916.74,-2.71 930.90,917.94,-2.71 930.10,918.34,-2.71 929.30,917.94,-2.71 928.50,916.74,-2.71" />
    </edge>
    <edge id=":BB_0" function="internal">
        <lane id=":BB_0_0" index="0" speed="3.65" length="4.67" shape="1247.07,598.17,-2.71 1248.27,598.97,-2.71 1248.67,599.77,-2.71 1248.27,600.57,-2.71 1247.07,601.37,-2.71" />
    </edge>
    <edge id=":BC_0" function="internal">
        <lane id=":BC_0_0" index="0" speed="3.65" length="4.67" shape="928.50,282.80,-2.71 929.30,281.60,-2.71 930.10,281.20,-2.71 930.90,281.60,-2.71 931.70,282.80,-2.71" />
    </edge>
    <edge id=":C_0" function="internal">
        <lane id=":C_0_0" index="0" speed="7.33" length="11.73" shape="605.13,316.68,5.76 604.78,312.83,5.76 603.73,310.08,5.76 601.98,308.43,5.76 599.53,307.88,5.76" />
    </edge>
    <edge id=":C_1" function="internal">
        <lane id=":C_1_0" index="0" speed="8.94" length="33.60" shape="605.13,316.68,5.76 605.13,283.08,5.76" />
        <lane id=":C_1_1" index="1" speed="8.94" length="33.60" shape="608.33,316.68,5.76 608.33,283.08,5.76" />
        <lane id=":C_1_2" index="2" speed="8.94" length="33.60" shape="611.53,316.68,5.76 611.53,283.08,5.76" />
    </edge>
    <edge id=":C_4" function="internal">
        <lane id=":C_4_0" index="0" speed="8.94" length="5.01" shape="611.53,316.68,5.76 612.24,311.72,5.76" />
    </edge>
    <edge id=":C_5" function="internal">
        <lane id=":C_5_0" index="0" speed="3.65" length="1.44" shape="611.53,316.68,5.76 612.33,315.48,5.76" />
    </edge>
    <edge id=":C_25" function="internal">
        <lane id=":C_25_0" index="0" speed="8.94" length="24.66" shape="612.24,311.72,5.76 612.68,308.63,5.76 616.13,302.88,5.76 621.88,299.43,5.76 629.93,298.28,5.76" />
    </edge>
    <edge id=":C_26" function="internal">
        <lane id=":C_26_0" index="0" speed="3.65" length="3.23" shape="612.33,315.48,5.76 613.13,315.08,5.76 613.93,315.48,5.76 614.73,316.68,5.76" />
    </edge>
    <edge id=":C_6" function="internal">
        <lane id=":C_6_0" index="0" speed="6.51" length="9.03" shape="629.93,311.08,5.76 627.48,311.43,5.76 625.73,312.48,5.76 624.68,314.23,5.76 624.33,316.68,5.76" />
    </edge>
    <edge id=":C_7" function="internal">
        <lane id=":C_7_0" index="0" speed="8.94" length="30.62" shape="629.93,311.08,5.76 620.84,310.58,5.76 614.62,309.48,5.76 608.46,308.38,5.76 599.53,307.88,5.76" />
        <lane id=":C_7_1" index="1" speed="8.94" length="30.62" shape="629.93,307.88,5.76 620.84,307.38,5.76 614.62,306.28,5.76 608.46,305.18,5.76 599.53,304.68,5.76" />
        <lane id=":C_7_2" index="2" speed="8.94" length="30.62" shape="629.93,304.68,5.76 620.84,304.18,5.76 614.62,303.08,5.76 608.46,301.98,5.76 599.53,301.48,5.76" />
    </edge>
    <edge id=":C_10" function="internal">
        <lane id=":C_10_0" index="0" speed="8.94" length="7.98" shape="629.93,301.48,5.76 622.02,300.35,5.76" />
    </edge>
    <edge id=":C_11" function="internal">
        <lane id=":C_11_0" index="0" speed="3.65" length="1.44" shape="629.93,301.48,5.76 628.73,300.68,5.76" />
    </edge>
    <edge id=":C_27" function="internal">
        <lane id=":C_27_0" index="0" speed="8.94" length="21.69" shape="622.02,300.35,5.76 621.88,300.33,5.76 616.13,296.88,5.76 612.68,291.13,5.76 611.53,283.08,5.76" />
    </edge>
    <edge id=":C_28" function="internal">
        <lane id=":C_28_0" index="0" speed="3.65" length="3.23" shape="628.73,300.68,5.76 628.33,299.88,5.76 628.73,299.08,5.76 629.93,298.28,5.76" />
    </edge>
    <edge id=":C_12" function="internal">
        <lane id=":C_12_0" index="0" speed="7.33" length="11.73" shape="624.33,283.08,5.76 624.68,286.93,5.76 625.73,289.68,5.76 627.48,291.33,5.76 629.93,291.88,5.76" />
    </edge>
    <edge id=":C_13" function="internal">
        <lane id=":C_13_0" index="0" speed="8.94" length="33.60" shape="624.33,283.08,5.76 624.33,316.68,5.76" />
        <lane id=":C_13_1" index="1" speed="8.94" length="33.60" shape="621.13,283.08,5.76 621.13,316.68,5.76" />
        <lane id=":C_13_2" index="2" speed="8.94" length="33.60" shape="617.93,283.08,5.76 617.93,316.68,5.76" />
        <lane id=":C_13_3" index="3" speed="8.94" length="33.60" shape="614.73,283.08,5.76 614.73,316.68,5.76" />
    </edge>
    <edge id=":C_17" function="internal">
        <lane id=":C_17_0" index="0" speed="8.94" length="6.03" shape="614.73,283.08,5.76 614.02,289.07,5.76" />
    </edge>
    <edge id=":C_18" function="internal">
        <lane id=":C_18_0" index="0" speed="3.65" length="1.44" shape="614.73,283.08,5.76 613.93,284.28,5.76" />
    </edge>
    <edge id=":C_29" function="internal">
        <lane id=":C_29_0" index="0" speed="8.94" length="21.12" shape="614.02,289.07,5.76 613.78,291.13,5.76 610.93,296.88,5.76 606.18,300.33,5.76 599.53,301.48,5.76" />
    </edge>
    <edge id=":C_30" function="internal">
        <lane id=":C_30_0" index="0" speed="3.65" length="3.23" shape="613.93,284.28,5.76 613.13,284.68,5.76 612.33,284.28,5.76 611.53,283.08,5.76" />
    </edge>
    <edge id=":C_19" function="internal">
        <lane id=":C_19_0" index="0" speed="6.51" length="9.03" shape="599.53,288.68,5.76 601.98,288.33,5.76 603.73,287.28,5.76 604.78,285.53,5.76 605.13,283.08,5.76" />
    </edge>
    <edge id=":C_20" function="internal">
        <lane id=":C_20_0" index="0" speed="8.94" length="30.62" shape="599.53,288.68,5.76 608.62,289.18,5.76 614.83,290.28,5.76 621.00,291.38,5.76 629.93,291.88,5.76" />
        <lane id=":C_20_1" index="1" speed="8.94" length="30.62" shape="599.53,291.88,5.76 608.62,292.38,5.76 614.83,293.48,5.76 621.00,294.58,5.76 629.93,295.08,5.76" />
        <lane id=":C_20_2" index="2" speed="8.94" length="30.62" shape="599.53,295.08,5.76 608.62,295.58,5.76 614.83,296.68,5.76 621.00,297.78,5.76 629.93,298.28,5.76" />
    </edge>
    <edge id=":C_23" function="internal">
        <lane id=":C_23_0" index="0" speed="8.94" length="6.09" shape="599.53,298.28,5.76 605.53,299.32,5.76" />
    </edge>
    <edge id=":C_24" function="internal">
        <lane id=":C_24_0" index="0" speed="3.65" length="1.44" shape="599.53,298.28,5.76 600.73,299.08,5.76" />
    </edge>
    <edge id=":C_31" function="internal">
        <lane id=":C_31_0" index="0" speed="8.94" length="21.05" shape="605.53,299.32,5.76 606.18,299.43,5.76 610.93,302.88,5.76 613.78,308.63,5.76 614.73,316.68,5.76" />
    </edge>
    <edge id=":C_32" function="internal">
        <lane id=":C_32_0" index="0" speed="3.65" length="3.23" shape="600.73,299.08,5.76 601.13,299.88,5.76 600.73,300.68,5.76 599.53,301.48,5.76" />
    </edge>
    <edge id=":CA_0" function="internal">
        <lane id=":CA_0_0" index="0" speed="3.65" length="4.67" shape="913.01,298.28,5.76 914.21,299.08,5.76 914.61,299.88,5.76 914.21,300.68,5.76 913.01,301.48,5.76" />
    </edge>
    <edge id=":CB_0" function="internal">
        <lane id=":CB_0_0" index="0" speed="3.65" length="4.67" shape="611.53,0.00,5.76 612.33,-1.20,5.76 613.13,-1.60,5.76 613.93,-1.20,5.76 614.73,0.00,5.76" />
    </edge>
    <edge id=":CC_0" function="internal">
        <lane id=":CC_0_0" index="0" speed="3.65" length="4.67" shape="313.24,301.48,5.76 312.04,300.68,5.76 311.64,299.88,5.76 312.04,299.08,5.76 313.24,298.28,5.76" />
    </edge>
    <edge id=":D_0" function="internal">
        <lane id=":D_0_0" index="0" speed="6.51" length="9.03" shape="295.36,613.37,1.03 295.01,610.92,1.03 293.96,609.17,1.03 292.21,608.12,1.03 289.76,607.77,1.03" />
    </edge>
    <edge id=":D_1" function="internal">
        <lane id=":D_1_0" index="0" speed="13.41" length="30.62" shape="295.36,613.37,1.03 295.86,604.28,1.03 296.96,598.06,1.03 298.06,591.90,1.03 298.56,582.97,1.03" />
        <lane id=":D_1_1" index="1" speed="13.41" length="30.62" shape="298.56,613.37,1.03 299.06,604.28,1.03 300.16,598.06,1.03 301.26,591.90,1.03 301.76,582.97,1.03" />
        <lane id=":D_1_2" index="2" speed="13.41" length="30.62" shape="301.76,613.37,1.03 302.26,604.28,1.03 303.36,598.06,1.03 304.46,591.90,1.03 304.96,582.97,1.03" />
    </edge>
    <edge id=":D_4" function="internal">
        <lane id=":D_4_0" index="0" speed="10.88" length="6.09" shape="304.96,613.37,1.03 306.00,607.36,1.02" />
    </edge>
    <edge id=":D_5" function="internal">
        <lane id=":D_5_0" index="0" speed="3.65" length="1.44" shape="304.96,613.37,1.03 305.76,612.17,1.03" />
    </edge>
    <edge id=":D_25" function="internal">
        <lane id=":D_25_0" index="0" speed="10.88" length="21.05" shape="306.00,607.36,1.02 306.11,606.72,1.01 309.56,601.97,1.00 315.31,599.12,0.99 323.36,598.17,0.97" />
    </edge>
    <edge id=":D_26" function="internal">
        <lane id=":D_26_0" index="0" speed="3.65" length="3.23" shape="305.76,612.17,1.03 306.56,611.77,1.03 307.36,612.17,1.03 308.16,613.37,1.03" />
    </edge>
    <edge id=":D_6" function="internal">
        <lane id=":D_6_0" index="0" speed="7.33" length="11.73" shape="323.36,607.77,0.97 319.51,608.12,0.99 316.76,609.17,1.00 315.11,610.92,1.02 314.56,613.37,1.03" />
    </edge>
    <edge id=":D_7" function="internal">
        <lane id=":D_7_0" index="0" speed="13.41" length="33.60" shape="323.36,607.77,0.97 289.76,607.77,1.03" />
        <lane id=":D_7_1" index="1" speed="13.41" length="33.60" shape="323.36,604.57,0.97 289.76,604.57,1.03" />
        <lane id=":D_7_2" index="2" speed="13.41" length="33.60" shape="323.36,601.37,0.97 289.76,601.37,1.03" />
    </edge>
    <edge id=":D_10" function="internal">
        <lane id=":D_10_0" index="0" speed="11.36" length="5.01" shape="323.36,601.37,0.97 318.40,600.66,0.98" />
    </edge>
    <edge id=":D_11" function="internal">
        <lane id=":D_11_0" index="0" speed="3.65" length="1.44" shape="323.36,601.37,0.97 322.16,600.57,0.97" />
    </edge>
    <edge id=":D_27" function="internal">
        <lane id=":D_27_0" index="0" speed="11.36" length="24.66" shape="318.40,600.66,0.98 315.31,600.22,0.99 309.56,596.77,1.00 306.11,591.02,1.01 304.96,582.97,1.03" />
    </edge>
    <edge id=":D_28" function="internal">
        <lane id=":D_28_0" index="0" speed="3.65" length="3.23" shape="322.16,600.57,0.97 321.76,599.77,0.97 322.16,598.97,0.97 323.36,598.17,0.97" />
    </edge>
    <edge id=":D_12" function="internal">
        <lane id=":D_12_0" index="0" speed="6.51" length="9.03" shape="317.76,582.97,1.03 318.11,585.42,1.01 319.16,587.17,1.00 320.91,588.22,0.99 323.36,588.57,0.97" />
    </edge>
    <edge id=":D_13" function="internal">
        <lane id=":D_13_0" index="0" speed="13.41" length="30.62" shape="317.76,582.97,1.03 317.26,592.06,1.03 316.16,598.27,1.03 315.06,604.44,1.03 314.56,613.37,1.03" />
        <lane id=":D_13_1" index="1" speed="13.41" length="30.62" shape="314.56,582.97,1.03 314.06,592.06,1.03 312.96,598.27,1.03 311.86,604.44,1.03 311.36,613.37,1.03" />
        <lane id=":D_13_2" index="2" speed="13.41" length="30.62" shape="311.36,582.97,1.03 310.86,592.06,1.03 309.76,598.27,1.03 308.66,604.44,1.03 308.16,613.37,1.03" />
    </edge>
    <edge id=":D_16" function="internal">
        <lane id=":D_16_0" index="0" speed="11.36" length="7.98" shape="308.16,582.97,1.03 307.03,590.87,1.03" />
    </edge>
    <edge id=":D_17" function="internal">
        <lane id=":D_17_0" index="0" speed="3.65" length="1.44" shape="308.16,582.97,1.03 307.36,584.17,1.03" />
    </edge>
    <edge id=":D_29" function="internal">
        <lane id=":D_29_0" index="0" speed="11.36" length="21.69" shape="307.03,590.87,1.03 307.01,591.02,1.03 303.56,596.77,1.03 297.81,600.22,1.03 289.76,601.37,1.03" />
    </edge>
    <edge id=":D_30" function="internal">
        <lane id=":D_30_0" index="0" speed="3.65" length="3.23" shape="307.36,584.17,1.03 306.56,584.57,1.03 305.76,584.17,1.03 304.96,582.97,1.03" />
    </edge>
    <edge id=":D_18" function="internal">
        <lane id=":D_18_0" index="0" speed="7.33" length="11.73" shape="289.76,588.57,1.03 293.61,588.22,1.03 296.36,587.17,1.03 298.01,585.42,1.03 298.56,582.97,1.03" />
    </edge>
    <edge id=":D_19" function="internal">
        <lane id=":D_19_0" index="0" speed="13.41" length="33.60" shape="289.76,588.57,1.03 323.36,588.57,0.97" />
        <lane id=":D_19_1" index="1" speed="13.41" length="33.60" shape="289.76,591.77,1.03 323.36,591.77,0.97" />
        <lane id=":D_19_2" index="2" speed="13.41" length="33.60" shape="289.76,594.97,1.03 323.36,594.97,0.97" />
        <lane id=":D_19_3" index="3" speed="13.41" length="33.60" shape="289.76,598.17,1.03 323.36,598.17,0.97" />
    </edge>
    <edge id=":D_23" function="internal">
        <lane id=":D_23_0" index="0" speed="10.88" length="6.03" shape="289.76,598.17,1.03 295.75,598.87,1.03" />
    </edge>
    <edge id=":D_24" function="internal">
        <lane id=":D_24_0" index="0" speed="3.65" length="1.44" shape="289.76,598.17,1.03 290.96,598.97,1.03" />
    </edge>
    <edge id=":D_31" function="internal">
        <lane id=":D_31_0" index="0" speed="10.88" length="21.12" shape="295.75,598.87,1.03 297.81,599.12,1.03 303.56,601.97,1.03 307.01,606.72,1.03 308.16,613.37,1.03" />
    </edge>
    <edge id=":D_32" function="internal">
        <lane id=":D_32_0" index="0" speed="3.65" length="3.23" shape="290.96,598.97,1.03 291.36,599.77,1.03 290.96,600.57,1.03 289.76,601.37,1.03" />
    </edge>
    <edge id=":DA_0" function="internal">
        <lane id=":DA_0_0" index="0" speed="3.65" length="4.67" shape="304.96,293.20,1.03 305.76,292.00,1.03 306.56,291.60,1.03 307.36,292.00,1.03 308.16,293.20,1.03" />
    </edge>
    <edge id=":DB_0" function="internal">
        <lane id=":DB_0_0" index="0" speed="3.65" length="4.67" shape="-0.00,601.37,1.03 -1.20,600.57,1.03 -1.60,599.77,1.03 -1.20,598.97,1.03 0.00,598.17,1.03" />
    </edge>
    <edge id=":DC_0" function="internal">
        <lane id=":DC_0_0" index="0" speed="3.65" length="4.67" shape="308.16,906.33,1.03 307.36,907.53,1.03 306.56,907.93,1.03 305.76,907.53,1.03 304.96,906.33,1.03" />
    </edge>
    <edge id=":TL_0" function="internal">
        <lane id=":TL_0_0" index="0" speed="7.33" length="11.73" shape="605.13,616.57 604.78,612.72,0.02 603.73,609.97,0.03 601.98,608.32,0.04 599.53,607.77,0.05" />
    </edge>
    <edge id=":TL_1" function="internal">
        <lane id=":TL_1_0" index="0" speed="11.18" length="33.60" shape="605.13,616.57 605.13,582.97" />
        <lane id=":TL_1_1" index="1" speed="11.18" length="33.60" shape="608.33,616.57 608.33,582.97" />
    </edge>
    <edge id=":TL_3" function="internal">
        <lane id=":TL_3_0" index="0" speed="11.36" length="7.96" shape="611.53,616.57 612.65,608.69,-0.04" />
    </edge>
    <edge id=":TL_19" function="internal">
        <lane id=":TL_19_0" index="0" speed="11.36" length="21.72" shape="612.65,608.69,-0.04 612.68,608.52,-0.04 616.13,602.77,-0.07 621.88,599.32,-0.10 629.93,598.17,-0.14" />
    </edge>
    <edge id=":TL_4" function="internal">
        <lane id=":TL_4_0" index="0" speed="7.33" length="11.73" shape="629.93,610.97,-0.14 626.08,611.32,-0.10 623.33,612.37,-0.06 621.68,614.12,-0.03 621.13,616.57" />
    </edge>
    <edge id=":TL_5" function="internal">
        <lane id=":TL_5_0" index="0" speed="13.41" length="30.62" shape="629.93,610.97,-0.14 620.84,610.47,-0.09 614.62,609.37,-0.05 608.46,608.27,-0.01 599.53,607.77,0.05" />
        <lane id=":TL_5_1" index="1" speed="13.41" length="30.62" shape="629.93,607.77,-0.14 620.84,607.27,-0.09 614.62,606.17,-0.05 608.46,605.07,-0.01 599.53,604.57,0.05" />
        <lane id=":TL_5_2" index="2" speed="13.41" length="30.62" shape="629.93,604.57,-0.14 620.84,604.07,-0.09 614.62,602.97,-0.05 608.46,601.87,-0.01 599.53,601.37,0.05" />
    </edge>
    <edge id=":TL_8" function="internal">
        <lane id=":TL_8_0" index="0" speed="11.18" length="7.98" shape="629.93,601.37,-0.14 622.02,600.24,-0.10" />
    </edge>
    <edge id=":TL_20" function="internal">
        <lane id=":TL_20_0" index="0" speed="11.18" length="21.69" shape="622.02,600.24,-0.10 621.88,600.22,-0.10 616.13,596.77,-0.07 612.68,591.02,-0.04 611.53,582.97" />
    </edge>
    <edge id=":TL_9" function="internal">
        <lane id=":TL_9_0" index="0" speed="7.33" length="11.73" shape="624.33,582.97 624.68,586.82,-0.05 625.73,589.57,-0.08 627.48,591.22,-0.11 629.93,591.77,-0.14" />
    </edge>
    <edge id=":TL_10" function="internal">
        <lane id=":TL_10_0" index="0" speed="11.18" length="33.80" shape="624.33,582.97 623.83,593.23 622.73,600.47 621.63,607.36 621.13,616.57" />
        <lane id=":TL_10_1" index="1" speed="11.18" length="33.80" shape="621.13,582.97 620.63,593.23 619.53,600.47 618.43,607.36 617.93,616.57" />
        <lane id=":TL_10_2" index="2" speed="11.18" length="33.80" shape="617.93,582.97 617.43,593.23 616.33,600.47 615.23,607.36 614.73,616.57" />
    </edge>
    <edge id=":TL_13" function="internal">
        <lane id=":TL_13_0" index="0" speed="10.88" length="14.35" shape="614.73,582.97 613.78,591.02,0.01 611.00,596.61,0.02" />
    </edge>
    <edge id=":TL_21" function="internal">
        <lane id=":TL_21_0" index="0" speed="10.88" length="12.79" shape="611.00,596.61,0.02 610.93,596.77,0.02 606.18,600.22,0.03 599.53,601.37,0.05" />
    </edge>
    <edge id=":TL_14" function="internal">