<net xmlns:xsi="http://www.w3.org/2001/XMLSchema-instance" version="1.9" junctionCornerDetail="5" limitTurnSpeed="5.50" xsi:noNamespaceSchemaLocation="http://sumo.dlr.de/xsd/net_file.xsd">

    <location netOffset="319.42,638.84" convBoundary="0.00,0.00,941.50,961.36" origBoundary="-319.42,-638.84,622.07,322.52" projParameter="!" />

    <edge id=":A_0" function="internal">
        <lane id=":A_0_0" index="0" speed="7.33" length="11.73" shape="314.62,810.50,-3.34 314.27,806.65,-3.34 313.22,803.90,-3.34 311.47,802.25,-3.34 309.02,801.70,-3.34" />
    </edge>
    <edge id=":A_1" function="internal">
        <lane id=":A_1_0" index="0" speed="13.41" length="20.80" shape="314.62,810.50,-3.34 314.62,789.70,-3.34" />
        <lane id=":A_1_1" index="1" speed="13.41" length="20.80" shape="317.82,810.50,-3.34 317.82,789.70,-3.34" />
    </edge>
    <edge id=":A_3" function="internal">
        <lane id=":A_3_0" index="0" speed="8.67" length="5.56" shape="317.82,810.50,-3.34 318.37,805.25,-3.34 318.48,805.00,-3.34" />
    </edge>
    <edge id=":A_4" function="internal">
        <lane id=":A_4_0" index="0" speed="3.65" length="1.44" shape="317.82,810.50,-3.34 318.62,809.30,-3.34" />
    </edge>
    <edge id=":A_17" function="internal">
        <lane id=":A_17_0" index="0" speed="8.67" length="11.29" shape="318.48,805.00,-3.34 320.02,801.50,-3.34 322.77,799.25,-3.34 326.62,798.50,-3.34" />
    </edge>
    <edge id=":A_18" function="internal">
        <lane id=":A_18_0" index="0" speed="3.65" length="3.23" shape="318.62,809.30,-3.34 319.42,808.90,-3.34 320.22,809.30,-3.34 321.02,810.50,-3.34" />
    </edge>
    <edge id=":A_5" function="internal">
        <lane id=":A_5_0" index="0" speed="6.51" length="9.03" shape="326.62,804.90,-3.34 324.17,805.25,-3.34 322.42,806.30,-3.34 321.37,808.05,-3.34 321.02,810.50,-3.34" />
    </edge>
    <edge id=":A_6" function="internal">
        <lane id=":A_6_0" index="0" speed="13.41" length="17.95" shape="326.62,804.90,-3.34 320.80,804.40,-3.34 316.34,803.30,-3.34 312.62,802.20,-3.34 309.02,801.70,-3.34" />
    </edge>
    <edge id=":A_7" function="internal">
        <lane id=":A_7_0" index="0" speed="8.67" length="4.68" shape="326.62,801.70,-3.34 322.77,800.95,-3.34 322.18,800.47,-3.34" />
    </edge>
    <edge id=":A_8" function="internal">
        <lane id=":A_8_0" index="0" speed="3.65" length="1.44" shape="326.62,801.70,-3.34 325.42,800.90,-3.34" />
    </edge>
    <edge id=":A_19" function="internal">
        <lane id=":A_19_0" index="0" speed="8.67" length="12.17" shape="322.18,800.47,-3.34 320.02,798.70,-3.34 318.37,794.95,-3.34 317.82,789.70,-3.34" />
    </edge>
    <edge id=":A_20" function="internal">
        <lane id=":A_20_0" index="0" speed="3.65" length="3.23" shape="325.42,800.90,-3.34 325.02,800.10,-3.34 325.42,799.30,-3.34 326.62,798.50,-3.34" />
    </edge>
    <edge id=":A_9" function="internal">
        <lane id=":A_9_0" index="0" speed="7.33" length="11.73" shape="321.02,789.70,-3.34 321.37,793.55,-3.34 322.42,796.30,-3.34 324.17,797.95,-3.34 326.62,798.50,-3.34" />
    </edge>
    <edge id=":A_10" function="internal">
        <lane id=":A_10_0" index="0" speed="13.41" length="20.80" shape="321.02,789.70,-3.34 321.02,810.50,-3.34" />
    </edge>
    <edge id=":A_11" function="internal">
        <lane id=":A_11_0" index="0" speed="9.26" length="5.01" shape="321.02,789.70,-3.34 320.31,794.67,-3.34" />
    </edge>
    <edge id=":A_12" function="internal">
        <lane id=":A_12_0" index="0" speed="3.65" length="1.44" shape="321.02,789.70,-3.34 320.22,790.90,-3.34" />
    </edge>
    <edge id=":A_21" function="internal">
        <lane id=":A_21_0" index="0" speed="9.26" length="14.34" shape="320.31,794.67,-3.34 320.27,794.95,-3.34 318.02,798.70,-3.34 314.27,800.95,-3.34 309.02,801.70,-3.34" />
    </edge>
    <edge id=":A_22" function="internal">
        <lane id=":A_22_0" index="0" speed="3.65" length="3.23" shape="320.22,790.90,-3.34 319.42,791.30,-3.34 318.62,790.90,-3.34 317.82,789.70,-3.34" />
    </edge>
    <edge id=":A_13" function="internal">
        <lane id=":A_13_0" index="0" speed="6.51" length="9.03" shape="309.02,795.30,-3.34 311.47,794.95,-3.34 313.22,793.90,-3.34 314.27,792.15,-3.34 314.62,789.70,-3.34" />
    </edge>
    <edge id=":A_14" function="internal">
        <lane id=":A_14_0" index="0" speed="13.41" length="17.95" shape="309.02,795.30,-3.34 314.84,795.80,-3.34 319.30,796.90,-3.34 323.02,798.00,-3.34 326.62,798.50,-3.34" />
    </edge>
    <edge id=":A_15" function="internal">
        <lane id=":A_15_0" index="0" speed="9.26" length="8.24" shape="309.02,798.50,-3.34 314.27,799.25,-3.34 316.79,800.76,-3.34" />
    </edge>
    <edge id=":A_16" function="internal">
        <lane id=":A_16_0" index="0" speed="3.65" length="1.44" shape="309.02,798.50,-3.34 310.22,799.30,-3.34" />
    </edge>
    <edge id=":A_23" function="internal">
        <lane id=":A_23_0" index="0" speed="9.26" length="11.12" shape="316.79,800.76,-3.34 318.02,801.50,-3.34 320.27,805.25,-3.34 321.02,810.50,-3.34" />
    </edge>
    <edge id=":A_24" function="internal">
        <lane id=":A_24_0" index="0" speed="3.65" length="3.23" shape="310.22,799.30,-3.34 310.62,800.10,-3.34 310.22,800.90,-3.34 309.02,801.70,-3.34" />
    </edge>
    <edge id=":AA_0" function="internal">
        <lane id=":AA_0_0" index="0" speed="3.65" length="4.67" shape="158.16,801.70,-3.34 156.96,800.90,-3.34 156.56,800.10,-3.34 156.96,799.30,-3.34 158.16,798.50,-3.34" />
    </edge>
    <edge id=":AB_0" function="internal">
        <lane id=":AB_0_0" index="0" speed="3.65" length="4.67" shape="321.02,961.36,-3.34 320.22,962.56,-3.34 319.42,962.96,-3.34 318.62,962.56,-3.34 317.82,961.36,-3.34" />
    </edge>
    <edge id=":AC_0" function="internal">
        <lane id=":AC_0_0" index="0" speed="3.65" length="4.67" shape="480.68,798.50,-3.34 481.88,799.30,-3.34 482.28,800.10,-3.34 481.88,800.90,-3.34 480.68,801.70,-3.34" />
    </edge>
    <edge id=":B_0" function="internal">
        <lane id=":B_0_0" index="0" speed="6.51" length="9.03" shape="622.46,652.44,-9.57 622.11,649.99,-9.57 621.06,648.24,-9.57 619.31,647.19,-9.57 616.86,646.84,-9.57" />
    </edge>
    <edge id=":B_1" function="internal">
        <lane id=":B_1_0" index="0" speed="13.41" length="21.09" shape="625.66,652.44,-9.57 626.16,645.46,-9.57 627.26,639.97,-9.57 628.36,635.52,-9.57 628.86,631.64,-9.57" />
    </edge>
    <edge id=":B_2" function="internal">
        <lane id=":B_2_0" index="0" speed="10.36" length="9.32" shape="628.86,652.44,-9.57 629.81,645.79,-9.57 631.15,643.56,-9.57" />
    </edge>
    <edge id=":B_3" function="internal">
        <lane id=":B_3_0" index="0" speed="3.65" length="1.44" shape="628.86,652.44,-9.57 629.66,651.24,-9.57" />
    </edge>
    <edge id=":B_18" function="internal">
        <lane id=":B_18_0" index="0" speed="10.36" length="15.19" shape="631.15,643.56,-9.57 632.66,641.04,-9.57 637.41,638.19,-9.57 644.06,637.24,-9.57" />
    </edge>
    <edge id=":B_19" function="internal">
        <lane id=":B_19_0" index="0" speed="3.65" length="3.23" shape="629.66,651.24,-9.57 630.46,650.84,-9.57 631.26,651.24,-9.57 632.06,652.44,-9.57" />
    </edge>
    <edge id=":B_4" function="internal">
        <lane id=":B_4_0" index="0" speed="8.10" length="14.57" shape="644.06,646.84,-9.57 638.81,647.19,-9.57 635.06,648.24,-9.57 632.81,649.99,-9.57 632.06,652.44,-9.57" />
    </edge>
    <edge id=":B_5" function="internal">
        <lane id=":B_5_0" index="0" speed="13.41" length="27.20" shape="644.06,646.84,-9.57 616.86,646.84,-9.57" />
        <lane id=":B_5_1" index="1" speed="13.41" length="27.20" shape="644.06,643.64,-9.57 616.86,643.64,-9.57" />
        <lane id=":B_5_2" index="2" speed="13.41" length="27.20" shape="644.06,640.44,-9.57 616.86,640.44,-9.57" />
    </edge>
    <edge id=":B_8" function="internal">
        <lane id=":B_8_0" index="0" speed="9.32" length="7.05" shape="644.06,640.44,-9.57 637.41,639.89,-9.57 637.05,639.77,-9.57" />
    </edge>
    <edge id=":B_9" function="internal">
        <lane id=":B_9_0" index="0" speed="3.65" length="1.44" shape="644.06,640.44,-9.57 642.86,639.64,-9.57" />
    </edge>
    <edge id=":B_20" function="internal">
        <lane id=":B_20_0" index="0" speed="9.32" length="12.57" shape="637.05,639.77,-9.57 632.66,638.24,-9.57 629.81,635.49,-9.57 628.86,631.64,-9.57" />
    </edge>
    <edge id=":B_21" function="internal">
        <lane id=":B_21_0" index="0" speed="3.65" length="3.23" shape="642.86,639.64,-9.57 642.46,638.84,-9.57 642.86,638.04,-9.57 644.06,637.24,-9.57" />
    </edge>
    <edge id=":B_10" function="internal">
        <lane id=":B_10_0" index="0" speed="6.51" length="9.03" shape="638.46,631.64,-9.57 638.81,634.09,-9.57 639.86,635.84,-9.57 641.61,636.89,-9.57 644.06,637.24,-9.57" />
    </edge>
    <edge id=":B_11" function="internal">
        <lane id=":B_11_0" index="0" speed="13.41" length="21.09" shape="635.26,631.64,-9.57 634.76,638.63,-9.57 633.66,644.11,-9.57 632.56,648.56,-9.57 632.06,652.44,-9.57" />
    </edge>
    <edge id=":B_12" function="internal">
        <lane id=":B_12_0" index="0" speed="9.32" length="4.12" shape="632.06,631.64,-9.57 631.11,635.49,-9.57 631.00,635.60,-9.57" />
    </edge>
    <edge id=":B_13" function="internal">
        <lane id=":B_13_0" index="0" speed="3.65" length="1.44" shape="632.06,631.64,-9.57 631.26,632.84,-9.57" />
    </edge>
    <edge id=":B_22" function="internal">
        <lane id=":B_22_0" index="0" speed="9.32" length="15.51" shape="631.00,635.60,-9.57 628.26,638.24,-9.57 623.51,639.89,-9.57 616.86,640.44,-9.57" />
    </edge>
    <edge id=":B_23" function="internal">
        <lane id=":B_23_0" index="0" speed="3.65" length="3.23" shape="631.26,632.84,-9.57 630.46,633.24,-9.57 629.66,632.84,-9.57 628.86,631.64,-9.57" />
    </edge>
    <edge id=":B_14" function="internal">
        <lane id=":B_14_0" index="0" speed="8.10" length="14.57" shape="616.86,637.24,-9.57 622.11,636.89,-9.57 625.86,635.84,-9.57 628.11,634.09,-9.57 628.86,631.64,-9.57" />
    </edge>
    <edge id=":B_15" function="internal">
        <lane id=":B_15_0" index="0" speed="13.41" length="27.20" shape="616.86,637.24,-9.57 644.06,637.24,-9.57" />
    </edge>
    <edge id=":B_16" function="internal">
        <lane id=":B_16_0" index="0" speed="10.36" length="5.01" shape="616.86,637.24,-9.57 621.82,637.95,-9.57" />
    </edge>
    <edge id=":B_17" function="internal">
        <lane id=":B_17_0" index="0" speed="3.65" length="1.44" shape="616.86,637.24,-9.57 618.06,638.04,-9.57" />
    </edge>
    <edge id=":B_24" function="internal">
        <lane id=":B_24_0" index="0" speed="10.36" length="19.50" shape="621.82,637.95,-9.57 623.51,638.19,-9.57 628.26,641.04,-9.57 631.11,645.79,-9.57 632.06,652.44,-9.57" />
    </edge>
    <edge id=":B_25" function="internal">
        <lane id=":B_25_0" index="0" speed="3.65" length="3.23" shape="618.06,638.04,-9.57 618.46,638.84,-9.57 618.06,639.64,-9.57 616.86,640.44,-9.57" />
    </edge>
    <edge id=":BA_0" function="internal">
        <lane id=":BA_0_0" index="0" speed="3.65" length="4.67" shape="632.06,949.88,-9.57 631.26,951.08,-9.57 630.46,951.48,-9.57 629.66,951.08,-9.57 628.86,949.88,-9.57" />
    </edge>
    <edge id=":BB_0" function="internal">
        <lane id=":BB_0_0" index="0" speed="3.65" length="4.67" shape="941.50,637.24,-9.57 942.70,638.04,-9.57 943.10,638.84,-9.57 942.70,639.64,-9.57 941.50,640.44,-9.57" />
    </edge>
    <edge id=":BC_0" function="internal">
        <lane id=":BC_0_0" index="0" speed="3.65" length="4.67" shape="628.86,327.81,-9.57 629.66,326.61,-9.57 630.46,326.21,-9.57 631.26,326.61,-9.57 632.06,327.81,-9.57" />
    </edge>
    <edge id=":C_0" function="internal">
        <lane id=":C_0_0" index="0" speed="7.33" length="11.73" shape="317.82,329.82,-9.05 317.47,325.97,-9.05 316.42,323.22,-9.05 314.67,321.57,-9.05 312.22,321.02,-9.05" />
    </edge>
    <edge id=":C_1" function="internal">
        <lane id=":C_1_0" index="0" speed="13.41" length="20.80" shape="317.82,329.82,-9.05 317.82,309.02,-9.05" />
    </edge>
    <edge id=":C_2" function="internal">
        <lane id=":C_2_0" index="0" speed="9.26" length="5.01" shape="317.82,329.82,-9.05 318.53,324.86,-9.05" />
    </edge>
    <edge id=":C_3" function="internal">
        <lane id=":C_3_0" index="0" speed="3.65" length="1.44" shape="317.82,329.82,-9.05 318.62,328.62,-9.05" />
    </edge>
    <edge id=":C_17" function="internal">
        <lane id=":C_17_0" index="0" speed="9.26" length="14.34" shape="318.53,324.86,-9.05 318.57,324.57,-9.05 320.82,320.82,-9.05 324.57,318.57,-9.05 329.82,317.82,-9.05" />
    </edge>
    <edge id=":C_18" function="internal">
        <lane id=":C_18_0" index="0" speed="3.65" length="3.23" shape="318.62,328.62,-9.05 319.42,328.22,-9.05 320.22,328.62,-9.05 321.02,329.82,-9.05" />
    </edge>
    <edge id=":C_4" function="internal">
        <lane id=":C_4_0" index="0" speed="6.51" length="9.03" shape="329.82,324.22,-9.05 327.37,324.57,-9.05 325.62,325.62,-9.05 324.57,327.37,-9.05 324.22,329.82,-9.05" />
    </edge>
    <edge id=":C_5" function="internal">
        <lane id=":C_5_0" index="0" speed="13.41" length="17.95" shape="329.82,324.22,-9.05 324.00,323.72,-9.05 319.54,322.62,-9.05 315.82,321.52,-9.05 312.22,321.02,-9.05" />
    </edge>
    <edge id=":C_6" function="internal">
        <lane id=":C_6_0" index="0" speed="9.26" length="8.24" shape="329.82,321.02,-9.05 324.57,320.27,-9.05 322.06,318.76,-9.05" />
    </edge>
    <edge id=":C_7" function="internal">
        <lane id=":C_7_0" index="0" speed="3.65" length="1.44" shape="329.82,321.02,-9.05 328.62,320.22,-9.05" />
    </edge>
    <edge id=":C_19" function="internal">
        <lane id=":C_19_0" index="0" speed="9.26" length="11.12" shape="322.06,318.76,-9.05 320.82,318.02,-9.05 318.57,314.27,-9.05 317.82,309.02,-9.05" />
    </edge>
    <edge id=":C_20" function="internal">
        <lane id=":C_20_0" index="0" speed="3.65" length="3.23" shape="328.62,320.22,-9.05 328.22,319.42,-9.05 328.62,318.62,-9.05 329.82,317.82,-9.05" />
    </edge>
    <edge id=":C_8" function="internal">
        <lane id=":C_8_0" index="0" speed="7.33" length="11.73" shape="324.22,309.02,-9.05 324.57,312.87,-9.05 325.62,315.62,-9.05 327.37,317.27,-9.05 329.82,317.82,-9.05" />
    </edge>
    <edge id=":C_9" function="internal">
        <lane id=":C_9_0" index="0" speed="13.41" length="20.80" shape="324.22,309.02,-9.05 324.22,329.82,-9.05" />
        <lane id=":C_9_1" index="1" speed="13.41" length="20.80" shape="321.02,309.02,-9.05 321.02,329.82,-9.05" />
    </edge>
    <edge id=":C_11" function="internal">
        <lane id=":C_11_0" index="0" speed="8.67" length="5.56" shape="321.02,309.02,-9.05 320.47,314.27,-9.05 320.36,314.53,-9.05" />
    </edge>
    <edge id=":C_12" function="internal">
        <lane id=":C_12_0" index="0" speed="3.65" length="1.44" shape="321.02,309.02,-9.05 320.22,310.22,-9.05" />
    </edge>
    <edge id=":C_21" function="internal">
        <lane id=":C_21_0" index="0" speed="8.67" length="11.29" shape="320.36,314.53,-9.05 318.82,318.02,-9.05 316.07,320.27,-9.05 312.22,321.02,-9.05" />
    </edge>
    <edge id=":C_22" function="internal">
        <lane id=":C_22_0" index="0" speed="3.65" length="3.23" shape="320.22,310.22,-9.05 319.42,310.62,-9.05 318.62,310.22,-9.05 317.82,309.02,-9.05" />
    </edge>
    <edge id=":C_13" function="internal">
        <lane id=":C_13_0" index="0" speed="6.51" length="9.03" shape="312.22,314.62,-9.05 314.67,314.27,-9.05 316.42,313.22,-9.05 317.47,311.47,-9.05 317.82,309.02,-9.05" />
    </edge>
    <edge id=":C_14" function="internal">
        <lane id=":C_14_0" index="0" speed="13.41" length="17.95" shape="312.22,314.62,-9.05 318.04,315.12,-9.05 322.50,316.22,-9.05 326.22,317.32,-9.05 329.82,317.82,-9.05" />
    </edge>
    <edge id=":C_15" function="internal">
        <lane id=":C_15_0" index="0" speed="8.67" length="4.68" shape="312.22,317.82,-9.05 316.07,318.57,-9.05 316.66,319.05,-9.05" />
    </edge>
    <edge id=":C_16" function="internal">
        <lane id=":C_16_0" index="0" speed="3.65" length="1.44" shape="312.22,317.82,-9.05 313.42,318.62,-9.05" />
    </edge>
    <edge id=":C_23" function="internal">
        <lane id=":C_23_0" index="0" speed="8.67" length="12.17" shape="316.66,319.05,-9.05 318.82,320.82,-9.05 320.47,324.57,-9.05 321.02,329.82,-9.05" />
    </edge>
    <edge id=":C_24" function="internal">
        <lane id=":C_24_0" index="0" speed="3.65" length="3.23" shape="313.42,318.62,-9.05 313.82,319.42,-9.05 313.42,320.22,-9.05 312.22,321.02,-9.05" />
    </edge>
    <edge id=":CA_0" function="internal">
        <lane id=":CA_0_0" index="0" speed="3.65" length="4.67" shape="638.84,317.82,-9.05 640.04,318.62,-9.05 640.44,319.42,-9.05 640.04,320.22,-9.05 638.84,321.02,-9.05" />
    </edge>
    <edge id=":CB_0" function="internal">
        <lane id=":CB_0_0" index="0" speed="3.65" length="4.67" shape="317.82,-0.00,-9.05 318.62,-1.20,-9.05 319.42,-1.60,-9.05 320.22,-1.20,-9.05 321.02,0.00,-9.05" />
    </edge>
    <edge id=":CC_0" function="internal">
        <lane id=":CC_0_0" index="0" speed="3.65" length="4.67" shape="-0.00,321.02,-9.05 -1.20,320.22,-9.05 -1.60,319.42,-9.05 -1.20,318.62,-9.05 0.00,317.82,-9.05" />
    </edge>
    <edge id=":D_0" function="internal">
        <lane id=":D_0_0" index="0" speed="6.51" length="9.03" shape="166.73,646.04,7.25 166.38,643.59,7.25 165.33,641.84,7.25 163.58,640.79,7.25 161.13,640.44,7.25" />
    </edge>
    <edge id=":D_1" function="internal">
        <lane id=":D_1_0" index="0" speed="11.18" length="17.95" shape="166.73,646.04,7.25 167.23,640.22,7.25 168.33,635.76,7.25 169.43,632.04,7.25 169.93,628.44,7.25" />
    </edge>
    <edge id=":D_2" function="internal">
        <lane id=":D_2_0" index="0" speed="8.67" length="4.68" shape="169.93,646.04,7.25 170.68,642.19,7.25 171.16,641.61,7.25" />
    </edge>
    <edge id=":D_3" function="internal">
        <lane id=":D_3_0" index="0" speed="3.65" length="1.44" shape="169.93,646.04,7.25 170.73,644.84,7.25" />
    </edge>
    <edge id=":D_17" function="internal">
        <lane id=":D_17_0" index="0" speed="8.67" length="12.17" shape="171.16,641.61,7.25 172.93,639.44,7.25 176.68,637.79,7.25 181.93,637.24,7.25" />
    </edge>
    <edge id=":D_18" function="internal">
        <lane id=":D_18_0" index="0" speed="3.65" length="3.23" shape="170.73,644.84,7.25 171.53,644.44,7.25 172.33,644.84,7.25 173.13,646.04,7.25" />
    </edge>
    <edge id=":D_4" function="internal">
        <lane id=":D_4_0" index="0" speed="7.33" length="11.73" shape="181.93,640.44,7.25 178.08,640.79,7.25 175.33,641.84,7.25 173.68,643.59,7.25 173.13,646.04,7.25" />
    </edge>
    <edge id=":D_5" function="internal">
        <lane id=":D_5_0" index="0" speed="11.18" length="20.80" shape="181.93,640.44,7.25 161.13,640.44,7.25" />
    </edge>
    <edge id=":D_6" function="internal">
        <lane id=":D_6_0" index="0" speed="9.26" length="5.01" shape="181.93,640.44,7.25 176.96,639.73,7.25" />
    </edge>
    <edge id=":D_7" function="internal">
        <lane id=":D_7_0" index="0" speed="3.65" length="1.44" shape="181.93,640.44,7.25 180.73,639.64,7.25" />
    </edge>
    <edge id=":D_19" function="internal">
        <lane id=":D_19_0" index="0" speed="9.26" length="14.34" shape="176.96,639.73,7.25 176.68,639.69,7.25 172.93,637.44,7.25 170.68,633.69,7.25 169.93,628.44,7.25" />
    </edge>
    <edge id=":D_20" function="internal">
        <lane id=":D_20_0" index="0" speed="3.65" length="3.23" shape="180.73,639.64,7.25 180.33,638.84,7.25 180.73,638.04,7.25 181.93,637.24,7.25" />
    </edge>
    <edge id=":D_8" function="internal">
        <lane id=":D_8_0" index="0" speed="6.51" length="9.03" shape="176.33,628.44,7.25 176.68,630.89,7.25 177.73,632.64,7.25 179.48,633.69,7.25 181.93,634.04,7.25" />
    </edge>
    <edge id=":D_9" function="internal">
        <lane id=":D_9_0" index="0" speed="11.18" length="17.95" shape="176.33,628.44,7.25 175.83,634.26,7.25 174.73,638.72,7.25 173.63,642.44,7.25 173.13,646.04,7.25" />
    </edge>
    <edge id=":D_10" function="internal">
        <lane id=":D_10_0" index="0" speed="9.26" length="8.24" shape="173.13,628.44,7.25 172.38,633.69,7.25 170.87,636.21,7.25" />
    </edge>
    <edge id=":D_11" function="internal">
        <lane id=":D_11_0" index="0" speed="3.65" length="1.44" shape="173.13,628.44,7.25 172.33,629.64,7.25" />
    </edge>
    <edge id=":D_21" function="internal">
        <lane id=":D_21_0" index="0" speed="9.26" length="11.12" shape="170.87,636.21,7.25 170.13,637.44,7.25 166.38,639.69,7.25 161.13,640.44,7.25" />
    </edge>
    <edge id=":D_22" function="internal">
        <lane id=":D_22_0" index="0" speed="3.65" length="3.23" shape="172.33,629.64,7.25 171.53,630.04,7.25 170.73,629.64,7.25 169.93,628.44,7.25" />
    </edge>
    <edge id=":D_12" function="internal">
        <lane id=":D_12_0" index="0" speed="7.33" length="11.73" shape="161.13,634.04,7.25 164.98,633.69,7.25 167.73,632.64,7.25 169.38,630.89,7.25 169.93,628.44,7.25" />
    </edge>
    <edge id=":D_13" function="internal">
        <lane id=":D_13_0" index="0" speed="11.18" length="20.80" shape="161.13,634.04,7.25 181.93,634.04,7.25" />
        <lane id=":D_13_1" index="1" speed="11.18" length="20.80" shape="161.13,637.24,7.25 181.93,637.24,7.25" />
    </edge>
    <edge id=":D_15" function="internal">
        <lane id=":D_15_0" index="0" speed="8.67" length="5.56" shape="161.13,637.24,7.25 166.38,637.79,7.25 166.63,637.91,7.25" />
    </edge>
    <edge id=":D_16" function="internal">
        <lane id=":D_16_0" index="0" speed="3.65" length="1.44" shape="161.13,637.24,7.25 162.33,638.04,7.25" />
    </edge>
    <edge id=":D_23" function="internal">
        <lane id=":D_23_0" index="0" speed="8.67" length="11.29" shape="166.63,637.91,7.25 170.13,639.44,7.25 172.38,642.19,7.25 173.13,646.04,7.25" />
    </edge>
    <edge id=":D_24" function="internal">
        <lane id=":D_24_0" index="0" speed="3.65" length="3.23" shape="162.33,638.04,7.25 162.73,638.84,7.25 162.33,639.64,7.25 161.13,640.44,7.25" />
    </edge>
    <edge id=":DA_0" function="internal">
        <lane id=":DA_0_0" index="0" speed="3.65" length="4.67" shape="169.93,490.95,7.25 170.73,489.75,7.25 171.53,489.35,7.25 172.33,489.75,7.25 173.13,490.95,7.25" />
    </edge>
    <edge id=":DB_0" function="internal">
        <lane id=":DB_0_0" index="0" speed="3.65" length="4.67" shape="23.63,640.44,7.25 22.43,639.64,7.25 22.03,638.84,7.25 22.43,638.04,7.25 23.63,637.24,7.25" />
    </edge>
    <edge id=":DC_0" function="internal">
        <lane id=":DC_0_0" index="0" speed="3.65" length="4.67" shape="173.13,786.74,7.25 172.33,787.94,7.25 171.53,788.34,7.25 170.73,787.94,7.25 169.93,786.74,7.25" />
    </edge>
    <edge id=":TL_0" function="internal">
        <lane id=":TL_0_0" index="0" speed="8.10" length="14.57" shape="314.62,652.44 314.27,647.19 313.22,643.44 311.47,641.19 309.02,640.44" />
    </edge>
    <edge id=":TL_1" function="internal">
        <lane id=":TL_1_0" index="0" speed="13.41" length="24.24" shape="314.62,652.44 315.12,645.18 316.22,638.57 317.32,632.90 317.82,628.44" />
    </edge>
    <edge id=":TL_2" function="internal">
        <lane id=":TL_2_0" index="0" speed="9.84" length="9.79" shape="317.82,652.44 318.57,645.79 319.90,643.00" />
    </edge>
    <edge id=":TL_12" function="internal">
        <lane id=":TL_12_0" index="0" speed="9.84" length="12.21" shape="319.90,643.00 320.82,641.04 324.57,638.19 329.82,637.24" />
    </edge>
    <edge id=":TL_3" function="internal">
        <lane id=":TL_3_0" index="0" speed="7.33" length="11.73" shape="329.82,646.84 325.97,647.19 323.22,648.24 321.57,649.99 321.02,652.44" />
    </edge>
    <edge id=":TL_4" function="internal">
        <lane id=":TL_4_0" index="0" speed="12.29" length="21.09" shape="329.82,643.64 322.84,643.14 317.35,642.04 312.90,640.94 309.02,640.44" />
    </edge>
    <edge id=":TL_5" function="internal">
        <lane id=":TL_5_0" index="0" speed="9.26" length="7.32" shape="329.82,640.44 324.57,639.69 322.84,638.66" />
    </edge>
    <edge id=":TL_13" function="internal">
        <lane id=":TL_13_0" index="0" speed="9.26" length="12.03" shape="322.84,638.66 320.82,637.44 318.57,633.69 317.82,628.44" />
    </edge>
    <edge id=":TL_6" function="internal">
        <lane id=":TL_6_0" index="0" speed="7.33" length="11.73" shape="324.22,628.44 324.57,632.29 325.62,635.04 327.37,636.69 329.82,637.24" />
    </edge>
    <edge id=":TL_7" function="internal">
        <lane id=":TL_7_0" index="0" speed="13.41" length="24.24" shape="324.22,628.44 323.72,635.71 322.62,642.32 321.52,647.99 321.02,652.44" />
    </edge>
    <edge id=":TL_8" function="internal">
        <lane id=":TL_8_0" index="0" speed="9.26" length="6.70" shape="321.02,628.44 320.27,633.69 319.55,634.89" />
    </edge>
    <edge id=":TL_14" function="internal">
        <lane id=":TL_14_0" index="0" speed="9.26" length="12.65" shape="319.55,634.89 318.02,637.44 314.27,639.69 309.02,640.44" />
    </edge>
    <edge id=":TL_9" function="internal">
        <lane id=":TL_9_0" index="0" speed="7.33" length="11.73" shape="309.02,634.04 312.87,633.69 315.62,632.64 317.27,630.89 317.82,628.44" />
    </edge>
    <edge id=":TL_10" function="internal">
        <lane id=":TL_10_0" index="0" speed="12.29" length="21.09" shape="309.02,634.04 315.79,634.54 321.30,635.64 325.87,636.74 329.82,637.24" />
    </edge>
    <edge id=":TL_11" function="internal">
        <lane id=":TL_11_0" index="0" speed="9.84" length="6.35" shape="309.02,637.24 314.27,638.19 315.08,638.81" />
    </edge>
    <edge id=":TL_15" function="internal">
        <lane id=":TL_15_0" index="0" speed="9.84" length="15.65" shape="315.08,638.81 318.02,641.04 320.27,645.79 321.02,652.44" />
    </edge>

    <edge id="A2AA" from="A" to="AA" priority="-1">
        <lane id="A2AA_0" index="0" speed="13.41" length="150.86" shape="309.02,801.70,-3.34 158.16,801.70,-3.34" />
    </edge>
    <edge id="A2AB" from="A" to="AB" priority="-1">
        <lane id="A2AB_0" index="0" speed="13.41" length="150.86" shape="321.02,810.50,-3.34 321.02,961.36,-3.34" />
    </edge>
    <edge id="A2AC" from="A" to="AC" priority="-1">
        <lane id="A2AC_0" index="0" speed="13.41" length="154.06" shape="326.62,798.50,-3.34 480.68,798.50,-3.34" />
    </edge>
    <edge id="A2TL" from="A" to="TL" priority="-1">
        <lane id="A2TL_0" index="0" speed="13.41" length="137.30" shape="314.62,789.70,-3.34 314.62,652.44" />
        <lane id="A2TL_1" index="1" speed="13.41" length="137.30" shape="317.82,789.70,-3.34 317.82,652.44" />
    </edge>
    <edge id="AA2A" from="AA" to="A" priority="-1">
        <lane id="AA2A_0" index="0" speed="13.41" length="150.86" shape="158.16,795.30,-3.34 309.02,795.30,-3.34" />
        <lane id="AA2A_1" index="1" speed="13.41" length="150.86" shape="158.16,798.50,-3.34 309.02,798.50,-3.34" />
    </edge>
    <edge id="AB2A" from="AB" to="A" priority="-1">
        <lane id="AB2A_0" index="0" speed="13.41" length="150.86" shape="314.62,961.36,-3.34 314.62,810.50,-3.34" />
        <lane id="AB2A_1" index="1" speed="13.41" length="150.86" shape="317.82,961.36,-3.34 317.82,810.50,-3.34" />
    </edge>
    <edge id="AC2A" from="AC" to="A" priority="-1">
        <lane id="AC2A_0" index="0" speed="13.41" length="154.06" shape="480.68,804.90,-3.34 326.62,804.90,-3.34" />
        <lane id="AC2A_1" index="1" speed="13.41" length="154.06" shape="480.68,801.70,-3.34 326.62,801.70,-3.34" />
    </edge>
    <edge id="B2BA" from="B" to="BA" priority="-1">
        <lane id="B2BA_0" index="0" speed="13.41" length="297.44" shape="632.06,652.44,-9.57 632.06,949.88,-9.57" />
    </edge>
    <edge id="B2BB" from="B" to="BB" priority="-1">
        <lane id="B2BB_0" index="0" speed="13.41" length="297.44" shape="644.06,637.24,-9.57 941.50,637.24,-9.57" />
    </edge>
    <edge id="B2BC" from="B" to="BC" priority="-1">
        <lane id="B2BC_0" index="0" speed="13.41" length="303.84" shape="628.86,631.64,-9.57 628.86,327.81,-9.57" />
    </edge>
    <edge id="B2TL" from="B" to="TL" priority="-1">
        <lane id="B2TL_0" index="0" speed="13.41" length="287.20" shape="616.86,646.84,-9.57 329.82,646.84" />
        <lane id="B2TL_1" index="1" speed="13.41" length="287.20" shape="616.86,643.64,-9.57 329.82,643.64" />
        <lane id="B2TL_2" index="2" speed="13.41" length="287.20" shape="616.86,640.44,-9.57 329.82,640.44" />
    </edge>
    <edge id="BA2B" from="BA" to="B" priority="-1">
        <lane id="BA2B_0" index="0" speed="13.41" length="297.44" shape="622.46,949.88,-9.57 622.46,652.44,-9.57" />
        <lane id="BA2B_1" index="1" speed="13.41" length="297.44" shape="625.66,949.88,-9.57 625.66,652.44,-9.57" />
        <lane id="BA2B_2" index="2" speed="13.41" length="297.44" shape="628.86,949.88,-9.57 628.86,652.44,-9.57" />
    </edge>
    <edge id="BB2B" from="BB" to="B" priority="-1">
        <lane id="BB2B_0" index="0" speed="13.41" length="297.44" shape="941.50,646.84,-9.57 644.06,646.84,-9.57" />
        <lane id="BB2B_1" index="1" speed="13.41" length="297.44" shape="941.50,643.64,-9.57 644.06,643.64,-9.57" />
        <lane id="BB2B_2" index="2" speed="13.41" length="297.44" shape="941.50,640.44,-9.57 644.06,640.44,-9.57" />
    </edge>
    <edge id="BC2B" from="BC" to="B" priority="-1">
        <lane id="BC2B_0" index="0" speed="13.41" length="303.84" shape="638.46,327.81,-9.57 638.46,631.64,-9.57" />
        <lane id="BC2B_1" index="1" speed="13.41" length="303.84" shape="635.26,327.81,-9.57 635.26,631.64,-9.57" />
        <lane id="BC2B_2" index="2" speed="13.41" length="303.84" shape="632.06,327.81,-9.57 632.06,631.64,-9.57" />
    </edge>
    <edge id="C2CA" from="C" to="CA" priority="-1">
        <lane id="C2CA_0" index="0" speed="13.41" length="309.02" shape="329.82,317.82,-9.05 638.84,317.82,-9.05" />
    </edge>
    <edge id="C2CB" from="C" to="CB" priority="-1">