<net xmlns:xsi="http://www.w3.org/2001/XMLSchema-instance" version="1.9" junctionCornerDetail="5" limitTurnSpeed="5.50" xsi:noNamespaceSchemaLocation="http://sumo.dlr.de/xsd/net_file.xsd">

    <location netOffset="524.82,413.91" convBoundary="0.00,0.00,1020.23,1035.48" origBoundary="-524.82,-413.91,495.41,621.57" projParameter="!" />

    <edge id=":A_0" function="internal">
        <lane id=":A_0_0" index="0" speed="6.51" length="9.03" shape="516.82,741.49,-9.47 516.47,739.04,-9.47 515.42,737.29,-9.47 513.67,736.24,-9.47 511.22,735.89,-9.47" />
    </edge>
    <edge id=":A_1" function="internal">
        <lane id=":A_1_0" index="0" speed="13.41" length="33.60" shape="516.82,741.49,-9.47 516.82,707.89,-9.47" />
        <lane id=":A_1_1" index="1" speed="13.41" length="33.60" shape="520.02,741.49,-9.47 520.02,707.89,-9.47" />
        <lane id=":A_1_2" index="2" speed="13.41" length="33.60" shape="523.22,741.49,-9.47 523.22,707.89,-9.47" />
    </edge>
    <edge id=":A_4" function="internal">
        <lane id=":A_4_0" index="0" speed="11.36" length="5.01" shape="523.22,741.49,-9.47 523.93,736.53,-9.47" />
    </edge>
    <edge id=":A_5" function="internal">
        <lane id=":A_5_0" index="0" speed="3.65" length="1.44" shape="523.22,741.49,-9.47 524.02,740.29,-9.47" />
    </edge>
    <edge id=":A_27" function="internal">
        <lane id=":A_27_0" index="0" speed="11.36" length="24.66" shape="523.93,736.53,-9.47 524.37,733.44,-9.47 527.82,727.69,-9.47 533.57,724.24,-9.47 541.62,723.09,-9.47" />
    </edge>
    <edge id=":A_28" function="internal">
        <lane id=":A_28_0" index="0" speed="3.65" length="3.23" shape="524.02,740.29,-9.47 524.82,739.89,-9.47 525.62,740.29,-9.47 526.42,741.49,-9.47" />
    </edge>
    <edge id=":A_6" function="internal">
        <lane id=":A_6_0" index="0" speed="7.33" length="11.73" shape="541.62,732.69,-9.47 539.17,733.24,-9.47 537.42,734.89,-9.47 536.37,737.64,-9.47 536.02,741.49,-9.47" />
    </edge>
    <edge id=":A_7" function="internal">
        <lane id=":A_7_0" index="0" speed="13.41" length="30.57" shape="541.62,732.69,-9.47 532.69,733.19,-9.47 526.52,734.29,-9.47 520.31,735.39,-9.47 511.22,735.89,-9.47" />
        <lane id=":A_7_1" index="1" speed="13.41" length="30.57" shape="541.62,729.49,-9.47 532.69,729.99,-9.47 526.52,731.09,-9.47 520.31,732.19,-9.47 511.22,732.69,-9.47" />
        <lane id=":A_7_2" index="2" speed="13.41" length="30.57" shape="541.62,726.29,-9.47 532.69,726.79,-9.47 526.52,727.89,-9.47 520.31,728.99,-9.47 511.22,729.49,-9.47" />
        <lane id=":A_7_3" index="3" speed="13.41" length="30.57" shape="541.62,726.29,-9.47 511.22,726.29,-9.47" />
    </edge>
    <edge id=":A_11" function="internal">
        <lane id=":A_11_0" index="0" speed="11.36" length="5.01" shape="541.62,726.29,-9.47 536.65,725.59,-9.47" />
    </edge>
    <edge id=":A_12" function="internal">
        <lane id=":A_12_0" index="0" speed="3.65" length="1.44" shape="541.62,726.29,-9.47 540.42,725.49,-9.47" />
    </edge>
    <edge id=":A_29" function="internal">
        <lane id=":A_29_0" index="0" speed="11.36" length="24.66" shape="536.65,725.59,-9.47 533.57,725.14,-9.47 527.82,721.69,-9.47 524.37,715.94,-9.47 523.22,707.89,-9.47" />
    </edge>
    <edge id=":A_30" function="internal">
        <lane id=":A_30_0" index="0" speed="3.65" length="3.23" shape="540.42,725.49,-9.47 540.02,724.69,-9.47 540.42,723.89,-9.47 541.62,723.09,-9.47" />
    </edge>
    <edge id=":A_13" function="internal">
        <lane id=":A_13_0" index="0" speed="6.51" length="9.03" shape="536.02,707.89,-9.47 536.37,710.34,-9.47 537.42,712.09,-9.47 539.17,713.14,-9.47 541.62,713.49,-9.47" />
    </edge>
    <edge id=":A_14" function="internal">
        <lane id=":A_14_0" index="0" speed="13.41" length="33.60" shape="536.02,707.89,-9.47 536.02,741.49,-9.47" />
        <lane id=":A_14_1" index="1" speed="13.41" length="33.60" shape="532.82,707.89,-9.47 532.82,741.49,-9.47" />
        <lane id=":A_14_2" index="2" speed="13.41" length="33.60" shape="529.62,707.89,-9.47 529.62,741.49,-9.47" />
        <lane id=":A_14_3" index="3" speed="13.41" length="33.60" shape="526.42,707.89,-9.47 526.42,741.49,-9.47" />
    </edge>
    <edge id=":A_18" function="internal">
        <lane id=":A_18_0" index="0" speed="10.88" length="6.03" shape="526.42,707.89,-9.47 525.71,713.88,-9.47" />
    </edge>
    <edge id=":A_19" function="internal">
        <lane id=":A_19_0" index="0" speed="3.65" length="1.44" shape="526.42,707.89,-9.47 525.62,709.09,-9.47" />
    </edge>
    <edge id=":A_31" function="internal">
        <lane id=":A_31_0" index="0" speed="10.88" length="21.12" shape="525.71,713.88,-9.47 525.47,715.94,-9.47 522.62,721.69,-9.47 517.87,725.14,-9.47 511.22,726.29,-9.47" />
    </edge>
    <edge id=":A_32" function="internal">
        <lane id=":A_32_0" index="0" speed="3.65" length="3.23" shape="525.62,709.09,-9.47 524.82,709.49,-9.47 524.02,709.09,-9.47 523.22,707.89,-9.47" />
    </edge>
    <edge id=":A_20" function="internal">
        <lane id=":A_20_0" index="0" speed="7.33" length="11.73" shape="511.22,716.69,-9.47 513.67,716.14,-9.47 515.42,714.49,-9.47 516.47,711.74,-9.47 516.82,707.89,-9.47" />
    </edge>
    <edge id=":A_21" function="internal">
        <lane id=":A_21_0" index="0" speed="13.41" length="30.57" shape="511.22,716.69,-9.47 520.15,716.19,-9.47 526.31,715.09,-9.47 532.53,713.99,-9.47 541.62,713.49,-9.47" />
        <lane id=":A_21_1" index="1" speed="13.41" length="30.57" shape="511.22,719.89,-9.47 520.15,719.39,-9.47 526.31,718.29,-9.47 532.53,717.19,-9.47 541.62,716.69,-9.47" />
        <lane id=":A_21_2" index="2" speed="13.41" length="30.57" shape="511.22,723.09,-9.47 520.15,722.59,-9.47 526.31,721.49,-9.47 532.53,720.39,-9.47 541.62,719.89,-9.47" />
        <lane id=":A_21_3" index="3" speed="13.41" length="30.57" shape="511.22,723.09,-9.47 541.62,723.09,-9.47" />
    </edge>
    <edge id=":A_25" function="internal">
        <lane id=":A_25_0" index="0" speed="10.88" length="4.19" shape="511.22,723.09,-9.47 515.34,723.81,-9.47" />
    </edge>
    <edge id=":A_26" function="internal">
        <lane id=":A_26_0" index="0" speed="3.65" length="1.44" shape="511.22,723.09,-9.47 512.42,723.89,-9.47" />
    </edge>
    <edge id=":A_33" function="internal">
        <lane id=":A_33_0" index="0" speed="10.88" length="22.96" shape="515.34,723.81,-9.47 517.87,724.24,-9.47 522.62,727.69,-9.47 525.47,733.44,-9.47 526.42,741.49,-9.47" />
    </edge>
    <edge id=":A_34" function="internal">
        <lane id=":A_34_0" index="0" speed="3.65" length="3.23" shape="512.42,723.89,-9.47 512.82,724.69,-9.47 512.42,725.49,-9.47 511.22,726.29,-9.47" />
    </edge>
    <edge id=":AA_0" function="internal">
        <lane id=":AA_0_0" index="0" speed="3.65" length="4.67" shape="214.03,726.29,-9.47 212.83,725.49,-9.47 212.43,724.69,-9.47 212.83,723.89,-9.47 214.03,723.09,-9.47" />
    </edge>
    <edge id=":AB_0" function="internal">
        <lane id=":AB_0_0" index="0" speed="3.65" length="4.67" shape="526.42,1035.48,-9.47 525.62,1036.68,-9.47 524.82,1037.08,-9.47 524.02,1036.68,-9.47 523.22,1035.48,-9.47" />
    </edge>
    <edge id=":AC_0" function="internal">
        <lane id=":AC_0_0" index="0" speed="3.65" length="4.67" shape="835.60,723.09,-9.47 836.80,723.89,-9.47 837.20,724.69,-9.47 836.80,725.49,-9.47 835.60,726.29,-9.47" />
    </edge>
    <edge id=":B_0" function="internal">
        <lane id=":B_0_0" index="0" speed="6.51" length="9.03" shape="772.39,286.68,-16.29 770.87,284.73,-16.29 769.08,283.74,-16.29 767.04,283.70,-16.29 764.74,284.63,-16.29" />
    </edge>
    <edge id=":B_1" function="internal">
        <lane id=":B_1_0" index="0" speed="13.41" length="24.27" shape="772.39,286.68,-16.29 769.10,279.97,-16.29 767.38,274.80,-16.29 765.87,269.97,-16.29 763.17,264.29,-16.29" />
        <lane id=":B_1_1" index="1" speed="13.41" length="24.27" shape="775.17,285.08,-16.29 771.87,278.37,-16.29 770.16,273.20,-16.29 768.64,268.37,-16.29 765.94,262.69,-16.29" />
    </edge>
    <edge id=":B_3" function="internal">
        <lane id=":B_3_0" index="0" speed="10.36" length="7.35" shape="777.94,283.48,-16.29 775.43,277.24,-16.29 775.44,276.61,-16.29" />
    </edge>
    <edge id=":B_4" function="internal">
        <lane id=":B_4_0" index="0" speed="3.65" length="1.44" shape="777.94,283.48,-16.29 778.03,282.04,-16.29" />
    </edge>
    <edge id=":B_21" function="internal">
        <lane id=":B_21_0" index="0" speed="10.36" length="17.17" shape="775.44,276.61,-16.29 775.53,271.70,-16.29 778.22,266.86,-16.29 783.50,262.71,-16.29" />
    </edge>
    <edge id=":B_22" function="internal">
        <lane id=":B_22_0" index="0" speed="3.65" length="3.23" shape="778.03,282.04,-16.29 778.52,281.29,-16.29 779.41,281.24,-16.29 780.71,281.88,-16.29" />
    </edge>
    <edge id=":B_5" function="internal">
        <lane id=":B_5_0" index="0" speed="7.33" length="11.73" shape="788.30,271.03,-16.29 785.14,273.25,-16.29 783.28,275.54,-16.29 782.73,277.88,-16.29 783.48,280.28,-16.29" />
    </edge>
    <edge id=":B_6" function="internal">
        <lane id=":B_6_0" index="0" speed="13.41" length="27.20" shape="788.30,271.03,-16.29 764.74,284.63,-16.29" />
        <lane id=":B_6_1" index="1" speed="13.41" length="27.20" shape="786.70,268.25,-16.29 763.14,281.85,-16.29" />
        <lane id=":B_6_2" index="2" speed="13.41" length="27.20" shape="785.10,265.48,-16.29 761.54,279.08,-16.29" />
    </edge>
    <edge id=":B_9" function="internal">
        <lane id=":B_9_0" index="0" speed="9.84" length="6.30" shape="785.10,265.48,-16.29 779.33,268.00,-16.29" />
    </edge>
    <edge id=":B_10" function="internal">
        <lane id=":B_10_0" index="0" speed="3.65" length="1.44" shape="785.10,265.48,-16.29 783.66,265.39,-16.29" />
    </edge>
    <edge id=":B_23" function="internal">
        <lane id=":B_23_0" index="0" speed="9.84" length="15.70" shape="779.33,268.00,-16.29 778.97,268.16,-16.29 773.73,268.58,-16.29 769.38,266.76,-16.29 765.94,262.69,-16.29" />
    </edge>
    <edge id=":B_24" function="internal">
        <lane id=":B_24_0" index="0" speed="3.65" length="3.23" shape="783.66,265.39,-16.29 782.91,264.90,-16.29 782.86,264.00,-16.29 783.50,262.71,-16.29" />
    </edge>
    <edge id=":B_11" function="internal">
        <lane id=":B_11_0" index="0" speed="6.51" length="9.03" shape="774.25,257.89,-16.29 775.78,259.84,-16.29 777.56,260.83,-16.29 779.60,260.86,-16.29 781.90,259.94,-16.29" />
    </edge>
    <edge id=":B_12" function="internal">
        <lane id=":B_12_0" index="0" speed="13.41" length="24.27" shape="774.25,257.89,-16.29 777.54,264.59,-16.29 779.26,269.77,-16.29 780.78,274.60,-16.29 783.48,280.28,-16.29" />
        <lane id=":B_12_1" index="1" speed="13.41" length="24.27" shape="771.48,259.49,-16.29 774.77,266.19,-16.29 776.49,271.37,-16.29 778.01,276.20,-16.29 780.71,281.88,-16.29" />
    </edge>
    <edge id=":B_14" function="internal">
        <lane id=":B_14_0" index="0" speed="9.84" length="5.46" shape="768.71,261.09,-16.29 770.51,266.11,-16.29 770.49,266.24,-16.29" />
    </edge>
    <edge id=":B_15" function="internal">
        <lane id=":B_15_0" index="0" speed="3.65" length="1.44" shape="768.71,261.09,-16.29 768.61,262.53,-16.29" />
    </edge>
    <edge id=":B_25" function="internal">
        <lane id=":B_25_0" index="0" speed="9.84" length="16.53" shape="770.49,266.24,-16.29 769.92,270.78,-16.29 766.93,275.11,-16.29 761.54,279.08,-16.29" />
    </edge>
    <edge id=":B_26" function="internal">
        <lane id=":B_26_0" index="0" speed="3.65" length="3.23" shape="768.61,262.53,-16.29 768.12,263.28,-16.29 767.23,263.33,-16.29 765.94,262.69,-16.29" />
    </edge>
    <edge id=":B_16" function="internal">
        <lane id=":B_16_0" index="0" speed="7.33" length="11.73" shape="758.34,273.54,-16.29 761.50,271.31,-16.29 763.36,269.03,-16.29 763.91,266.69,-16.29 763.17,264.29,-16.29" />
    </edge>
    <edge id=":B_17" function="internal">
        <lane id=":B_17_0" index="0" speed="13.41" length="27.20" shape="758.34,273.54,-16.29 781.90,259.94,-16.29" />
        <lane id=":B_17_1" index="1" speed="13.41" length="27.20" shape="759.94,276.31,-16.29 783.50,262.71,-16.29" />
    </edge>
    <edge id=":B_19" function="internal">
        <lane id=":B_19_0" index="0" speed="10.36" length="5.01" shape="759.94,276.31,-16.29 764.60,274.44,-16.29" />
    </edge>
    <edge id=":B_20" function="internal">
        <lane id=":B_20_0" index="0" speed="3.65" length="1.44" shape="759.94,276.31,-16.29 761.38,276.40,-16.29" />
    </edge>
    <edge id=":B_27" function="internal">
        <lane id=":B_27_0" index="0" speed="10.36" length="19.50" shape="764.60,274.44,-16.29 766.18,273.81,-16.29 771.72,273.90,-16.29 776.56,276.59,-16.29 780.71,281.88,-16.29" />
    </edge>
    <edge id=":B_28" function="internal">
        <lane id=":B_28_0" index="0" speed="3.65" length="3.23" shape="761.38,276.40,-16.29 762.13,276.90,-16.29 762.18,277.79,-16.29 761.54,279.08,-16.29" />
    </edge>
    <edge id=":BA_0" function="internal">
        <lane id=":BA_0_0" index="0" speed="3.65" length="4.67" shape="916.92,517.80,-16.29 916.83,519.24,-16.29 916.33,519.99,-16.29 915.44,520.04,-16.29 914.15,519.40,-16.29" />
    </edge>
    <edge id=":BB_0" function="internal">
        <lane id=":BB_0_0" index="0" speed="3.65" length="4.67" shape="1019.43,126.50,-16.29 1020.87,126.59,-16.29 1021.61,127.08,-16.29 1021.67,127.98,-16.29 1021.03,129.27,-16.29" />
    </edge>
    <edge id=":BC_0" function="internal">
        <lane id=":BC_0_0" index="0" speed="3.65" length="4.67" shape="628.12,23.99,-16.29 628.22,22.55,-16.29 628.71,21.81,-16.29 629.60,21.75,-16.29 630.89,22.39,-16.29" />
    </edge>
    <edge id=":C_0" function="internal">
        <lane id=":C_0_0" index="0" speed="8.10" length="14.57" shape="274.56,274.97,8.86 269.84,272.64,8.86 266.06,271.68,8.86 263.24,272.07,8.86 261.37,273.81,8.86" />
    </edge>
    <edge id=":C_1" function="internal">
        <lane id=":C_1_0" index="0" speed="13.41" length="33.60" shape="274.56,274.97,8.86 245.46,258.17,8.86" />
        <lane id=":C_1_1" index="1" speed="13.41" length="33.60" shape="276.16,272.19,8.86 247.06,255.39,8.86" />
    </edge>
    <edge id=":C_3" function="internal">
        <lane id=":C_3_0" index="0" speed="11.36" length="5.01" shape="276.16,272.19,8.86 272.21,269.10,8.86" />
    </edge>
    <edge id=":C_4" function="internal">
        <lane id=":C_4_0" index="0" speed="3.65" length="1.44" shape="276.16,272.19,8.86 275.52,270.90,8.86" />
    </edge>
    <edge id=":C_22" function="internal">
        <lane id=":C_22_0" index="0" speed="11.36" length="24.66" shape="272.21,269.10,8.86 269.76,267.17,8.86 266.51,261.31,8.86 266.39,254.61,8.86 269.42,247.06,8.86" />
    </edge>
    <edge id=":C_23" function="internal">
        <lane id=":C_23_0" index="0" speed="3.65" length="3.23" shape="275.52,270.90,8.86 275.57,270.01,8.86 276.32,269.52,8.86 277.76,269.42,8.86" />
    </edge>
    <edge id=":C_5" function="internal">
        <lane id=":C_5_0" index="0" speed="6.51" length="9.03" shape="280.51,253.46,8.86 279.59,255.76,8.86 279.62,257.80,8.86 280.61,259.58,8.86 282.56,261.11,8.86" />
    </edge>
    <edge id=":C_6" function="internal">
        <lane id=":C_6_0" index="0" speed="13.41" length="27.43" shape="277.74,251.86,8.86 272.99,259.07,8.86 268.86,264.04,8.86 265.07,268.40,8.86 261.37,273.81,8.86" />
        <lane id=":C_6_1" index="1" speed="13.41" length="27.43" shape="274.97,250.26,8.86 270.22,257.47,8.86 266.09,262.44,8.86 262.30,266.80,8.86 258.59,272.21,8.86" />
    </edge>
    <edge id=":C_8" function="internal">
        <lane id=":C_8_0" index="0" speed="11.36" length="8.78" shape="272.19,248.66,8.86 267.17,255.06,8.86 266.61,255.37,8.86" />
    </edge>
    <edge id=":C_9" function="internal">
        <lane id=":C_9_0" index="0" speed="3.65" length="1.44" shape="272.19,248.66,8.86 270.90,249.30,8.86" />
    </edge>
    <edge id=":C_24" function="internal">
        <lane id=":C_24_0" index="0" speed="11.36" length="20.90" shape="266.61,255.37,8.86 261.31,258.31,8.86 254.61,258.42,8.86 247.06,255.39,8.86" />
    </edge>
    <edge id=":C_25" function="internal">
        <lane id=":C_25_0" index="0" speed="3.65" length="3.23" shape="270.90,249.30,8.86 270.01,249.24,8.86 269.52,248.50,8.86 269.42,247.06,8.86" />
    </edge>
    <edge id=":C_10" function="internal">
        <lane id=":C_10_0" index="0" speed="8.10" length="14.57" shape="253.46,244.31,8.86 258.18,246.63,8.86 261.95,247.60,8.86 264.78,247.21,8.86 266.65,245.46,8.86" />
    </edge>
    <edge id=":C_11" function="internal">
        <lane id=":C_11_0" index="0" speed="13.41" length="33.60" shape="253.46,244.31,8.86 282.56,261.11,8.86" />
        <lane id=":C_11_1" index="1" speed="13.41" length="33.60" shape="251.86,247.08,8.86 280.96,263.88,8.86" />
        <lane id=":C_11_2" index="2" speed="13.41" length="33.60" shape="250.26,249.85,8.86 279.36,266.65,8.86" />
        <lane id=":C_11_3" index="3" speed="13.41" length="33.60" shape="248.66,252.62,8.86 277.76,269.42,8.86" />
    </edge>
    <edge id=":C_15" function="internal">
        <lane id=":C_15_0" index="0" speed="10.41" length="7.59" shape="248.66,252.62,8.86 254.85,257.01,8.86" />
    </edge>
    <edge id=":C_16" function="internal">
        <lane id=":C_16_0" index="0" speed="3.65" length="1.44" shape="248.66,252.62,8.86 249.30,253.92,8.86" />
    </edge>
    <edge id=":C_26" function="internal">
        <lane id=":C_26_0" index="0" speed="10.41" length="17.14" shape="254.85,257.01,8.86 255.26,257.30,8.86 259.11,262.12,8.86 260.22,267.09,8.86 258.59,272.21,8.86" />
    </edge>
    <edge id=":C_27" function="internal">
        <lane id=":C_27_0" index="0" speed="3.65" length="3.23" shape="249.30,253.92,8.86 249.24,254.81,8.86 248.50,255.30,8.86 247.06,255.39,8.86" />
    </edge>
    <edge id=":C_17" function="internal">
        <lane id=":C_17_0" index="0" speed="6.51" length="9.03" shape="247.51,265.81,8.86 248.43,263.52,8.86 248.40,261.48,8.86 247.41,259.69,8.86 245.46,258.17,8.86" />
    </edge>
    <edge id=":C_18" function="internal">
        <lane id=":C_18_0" index="0" speed="13.41" length="27.43" shape="250.28,267.41,8.86 255.02,260.20,8.86 259.16,255.24,8.86 262.95,250.88,8.86 266.65,245.46,8.86" />
        <lane id=":C_18_1" index="1" speed="13.41" length="27.43" shape="253.05,269.01,8.86 257.79,261.80,8.86 261.93,256.84,8.86 265.72,252.48,8.86 269.42,247.06,8.86" />
    </edge>
    <edge id=":C_20" function="internal">
        <lane id=":C_20_0" index="0" speed="10.41" length="5.03" shape="255.82,270.61,8.86 259.21,266.89,8.86" />
    </edge>
    <edge id=":C_21" function="internal">
        <lane id=":C_21_0" index="0" speed="3.65" length="1.44" shape="255.82,270.61,8.86 257.12,269.98,8.86" />
    </edge>
    <edge id=":C_28" function="internal">
        <lane id=":C_28_0" index="0" speed="10.41" length="19.69" shape="259.21,266.89,8.86 259.44,266.64,8.86 264.31,265.12,8.86 270.41,266.05,8.86 277.76,269.42,8.86" />
    </edge>
    <edge id=":C_29" function="internal">
        <lane id=":C_29_0" index="0" speed="3.65" length="3.23" shape="257.12,269.98,8.86 258.01,270.03,8.86 258.50,270.78,8.86 258.59,272.21,8.86" />
    </edge>
    <edge id=":CA_0" function="internal">
        <lane id=":CA_0_0" index="0" speed="3.65" length="4.67" shape="412.52,-0.80,8.86 413.82,-1.44,8.86 414.71,-1.39,8.86 415.20,-0.64,8.86 415.30,0.80,8.86" />
    </edge>
    <edge id=":CB_0" function="internal">
        <lane id=":CB_0_0" index="0" speed="3.65" length="4.67" shape="-0.80,112.29,8.86 -1.44,111.00,8.86 -1.39,110.11,8.86 -0.64,109.61,8.86 0.80,109.52,8.86" />
    </edge>
    <edge id=":CC_0" function="internal">
        <lane id=":CC_0_0" index="0" speed="3.65" length="4.67" shape="112.29,525.62,8.86 111.00,526.26,8.86 110.11,526.20,8.86 109.61,525.46,8.86 109.52,524.02,8.86" />
    </edge>
    <edge id=":TL_0" function="internal">
        <lane id=":TL_0_0" index="0" speed="7.59" length="7.59" shape="516.82,419.91,-0.19 516.64,417.59,-0.13 516.12,415.70,-0.08 515.24,414.24,-0.04 514.02,413.22" />
        <lane id=":TL_0_1" index="1" speed="9.00" length="10.94" shape="520.02,419.91,-0.19 519.74,416.72,-0.14 518.92,414.08,-0.09 517.54,411.99,-0.04 515.62,410.45" />
    </edge>
    <edge id=":TL_2" function="internal">
        <lane id=":TL_2_0" index="0" speed="11.88" length="1.90" shape="523.22,419.91,-0.19 523.63,418.06,-0.17" />
    </edge>
    <edge id=":TL_10" function="internal">
        <lane id=":TL_10_0" index="0" speed="11.88" length="17.61" shape="523.63,418.06,-0.17 523.99,416.44,-0.16 526.32,412.93,-0.12 530.19,409.39,-0.06 535.62,405.83" />
    </edge>
    <edge id=":TL_3" function="internal">
        <lane id=":TL_3_0" index="0" speed="7.59" length="7.59" shape="540.42,414.14 538.49,415.45,-0.06 537.12,416.85,-0.10 536.29,418.34,-0.14 536.02,419.91,-0.18" />
    </edge>
    <edge id=":TL_4" function="internal">
        <lane id=":TL_4_0" index="0" speed="13.41" length="26.08" shape="538.82,411.37 532.02,414.52 525.62,415.87 519.62,415.44 514.02,413.22" />
        <lane id=":TL_4_1" index="1" speed="12.79" length="22.72" shape="537.22,408.60 531.22,411.40 525.62,412.64 520.42,412.32 515.62,410.45" />
    </edge>
    <edge id=":TL_6" function="internal">
        <lane id=":TL_6_0" index="0" speed="9.73" length="12.90" shape="522.02,399.36 526.22,401.58 529.62,402.94 532.22,403.43 534.02,403.06" />
    </edge>
    <edge id=":TL_7" function="internal">
        <lane id=":TL_7_0" index="0" speed="13.29" length="24.60" shape="520.42,402.13 527.24,406.62,-0.06 532.12,411.08,-0.11 535.04,415.51,-0.15 536.02,419.91,-0.18" />
        <lane id=":TL_7_1" index="1" speed="12.38" length="21.27" shape="518.82,404.90 524.94,408.87,-0.06 529.32,412.70,-0.11 531.94,416.38,-0.15 532.82,419.91,-0.18" />
        <lane id=":TL_7_2" index="2" speed="10.80" length="16.02" shape="517.22,407.67 521.24,410.43,-0.06 524.12,413.39,-0.10 525.84,416.55,-0.14 526.42,419.91,-0.18" />
    </edge>

    <edge id="A2AA" from="A" to="AA" priority="-1">
        <lane id="A2AA_0" index="0" speed="13.41" length="297.18" shape="511.22,735.89,-9.47 214.03,735.89,-9.47" />
        <lane id="A2AA_1" index="1" speed="13.41" length="297.18" shape="511.22,732.69,-9.47 214.03,732.69,-9.47" />
        <lane id="A2AA_2" index="2" speed="13.41" length="297.18" shape="511.22,729.49,-9.47 214.03,729.49,-9.47" />
        <lane id="A2AA_3" index="3" speed="13.41" length="297.18" shape="511.22,726.29,-9.47 214.03,726.29,-9.47" />
    </edge>
    <edge id="A2AB" from="A" to="AB" priority="-1">
        <lane id="A2AB_0" index="0" speed="13.41" length="293.98" shape="536.02,741.49,-9.47 536.02,1035.48,-9.47" />
        <lane id="A2AB_1" index="1" speed="13.41" length="293.98" shape="532.82,741.49,-9.47 532.82,1035.48,-9.47" />
        <lane id="A2AB_2" index="2" speed="13.41" length="293.98" shape="529.62,741.49,-9.47 529.62,1035.48,-9.47" />
        <lane id="A2AB_3" index="3" speed="13.41" length="293.98" shape="526.42,741.49,-9.47 526.42,1035.48,-9.47" />
    </edge>
    <edge id="A2AC" from="A" to="AC" priority="-1">
        <lane id="A2AC_0" index="0" speed="13.41" length="293.98" shape="541.62,713.49,-9.47 835.60,713.49,-9.47" />
        <lane id="A2AC_1" index="1" speed="13.41" length="293.98" shape="541.62,716.69,-9.47 835.60,716.69,-9.47" />
        <lane id="A2AC_2" index="2" speed="13.41" length="293.98" shape="541.62,719.89,-9.47 835.60,719.89,-9.47" />
        <lane id="A2AC_3" index="3" speed="13.41" length="293.98" shape="541.62,723.09,-9.47 835.60,723.09,-9.47" />
    </edge>
    <edge id="A2TL" from="A" to="TL" priority="-1">
        <lane id="A2TL_0" index="0" speed="13.41" length="288.13" shape="516.82,707.89,-9.47 516.82,419.91,-0.19" />
        <lane id="A2TL_1" index="1" speed="13.41" length="288.13" shape="520.02,707.89,-9.47 520.02,419.91,-0.19" />
        <lane id="A2TL_2" index="2" speed="13.41" length="288.13" shape="523.22,707.89,-9.47 523.22,419.91,-0.19" />
    </edge>
    <edge id="AA2A" from="AA" to="A" priority="-1">
        <lane id="AA2A_0" index="0" speed="13.41" length="297.18" shape="214.03,716.69,-9.47 511.22,716.69,-9.47" />
        <lane id="AA2A_1" index="1" speed="13.41" length="297.18" shape="214.03,719.89,-9.47 511.22,719.89,-9.47" />
        <lane id="AA2A_2" index="2" speed="13.41" length="297.18" shape="214.03,723.09,-9.47 511.22,723.09,-9.47" />
    </edge>
    <edge id="AB2A" from="AB" to="A" priority="-1">
        <lane id="AB2A_0" index="0" speed="13.41" length="293.98" shape="516.82,1035.48,-9.47 516.82,741.49,-9.47" />
        <lane id="AB2A_1" index="1" speed="13.41" length="293.98" shape="520.02,1035.48,-9.47 520.02,741.49,-9.47" />
        <lane id="AB2A_2" index="2" speed="13.41" length="293.98" shape="523.22,1035.48,-9.47 523.22,741.49,-9.47" />
    </edge>
    <edge id="AC2A" from="AC" to="A" priority="-1">
        <lane id="AC2A_0" index="0" speed="13.41" length="293.98" shape="835.60,732.69,-9.47 541.62,732.69,-9.47" />
        <lane id="AC2A_1" index="1" speed="13.41" length="293.98" shape="835.60,729.49,-9.47 541.62,729.49,-9.47" />
        <lane id="AC2A_2" index="2" speed="13.41" length="293.98" shape="835.60,726.29,-9.47 541.62,726.29,-9.47" />
    </edge>
    <edge id="B2BA" from="B" to="BA" priority="-1">
        <lane id="B2BA_0" index="0" speed="13.41" length="272.43" shape="783.48,280.28,-16.29 919.69,516.20,-16.29" />
        <lane id="B2BA_1" index="1" speed="13.41" length="272.43" shape="780.71,281.88,-16.29 916.92,517.80,-16.29" />
    </edge>
    <edge id="B2BB" from="B" to="BB" priority="-1">
        <lane id="B2BB_0" index="0" speed="13.41" length="272.43" shape="781.90,259.94,-16.29 1017.83,123.73,-16.29" />
        <lane id="B2BB_1" index="1" speed="13.41" length="272.43" shape="783.50,262.71,-16.29 1019.43,126.50,-16.29" />
    </edge>
    <edge id="B2BC" from="B" to="BC" priority="-1">
        <lane id="B2BC_0" index="0" speed="13.41" length="275.63" shape="763.17,264.29,-16.29 625.35,25.59,-16.29" />
        <lane id="B2BC_1" index="1" speed="13.41" length="275.63" shape="765.94,262.69,-16.29 628.12,23.99,-16.29" />
    </edge>
    <edge id="B2TL" from="B" to="TL" priority="-1">
        <lane id="B2TL_0" index="0" speed="13.41" length="259.54" shape="764.74,284.63,-16.29 540.42,414.14" />
        <lane id="B2TL_1" index="1" speed="13.41" length="259.54" shape="763.14,281.85,-16.29 538.82,411.37" />
        <lane id="B2TL_2" index="2" speed="13.41" length="259.54" shape="761.54,279.08,-16.29 537.22,408.60" />
    </edge>
    <edge id="BA2B" from="BA" to="B" priority="-1">
        <lane id="BA2B_0" index="0" speed="13.41" length="272.43" shape="908.61,522.60,-16.29 772.39,286.68,-16.29" />
        <lane id="BA2B_1" index="1" speed="13.41" length="272.43" shape="911.38,521.00,-16.29 775.17,285.08,-16.29" />
        <lane id="BA2B_2" index="2" speed="13.41" length="272.43" shape="914.15,519.40,-16.29 777.94,283.48,-16.29" />
    </edge>
    <edge id="BB2B" from="BB" to="B" priority="-1">
        <lane id="BB2B_0" index="0" speed="13.41" length="272.43" shape="1024.23,134.81,-16.29 788.30,271.03,-16.29" />
        <lane id="BB2B_1" index="1" speed="13.41" length="272.43" shape="1022.63,132.04,-16.29 786.70,268.25,-16.29" />
        <lane id="BB2B_2" index="2" speed="13.41" length="272.43" shape="1021.03,129.27,-16.29 785.10,265.48,-16.29" />
    </edge>
    <edge id="BC2B" from="BC" to="B" priority="-1">
        <lane id="BC2B_0" index="0" speed="13.41" length="275.63" shape="636.44,19.19,-16.29 774.25,257.89,-16.29" />
        <lane id="BC2B_1" index="1" speed="13.41" length="275.63" shape="633.67,20.79,-16.29 771.48,259.49,-16.29" />
        <lane id="BC2B_2" index="2" speed="13.41" length="275.63" shape="630.89,22.39,-16.29 768.71,261.09,-16.29" />
    </edge>
    <edge id="C2CA" from="C" to="CA" priority="-1">
        <lane id="C2CA_0" index="0" speed="13.41" length="286.20" shape="266.65,245.46,8.86 409.75,-2.40,8.86" />
        <lane id="C2CA_1" index="1" speed="13.41" length="286.20" shape="269.42,247.06,8.86 412.52,-0.80,8.86" />
    </edge>
    <edge id="C2CB" from="C" to="CB" priority="-1">
        <lane id="C2CB_0" index="0" speed="13.41" length="286.20" shape="245.46,258.17,8.86 -2.40,115.06,8.86" />
        <lane id="C2CB_1" index="1" speed="13.41" length="286.20" shape="247.06,255.39,8.86 -0.80,112.29,8.86" />
    </edge>
    <edge id="C2CC" from="C" to="CC" priority="-1">
        <lane id="C2CC_0" index="0" speed="13.41" length="292.60" shape="261.37,273.81,8.86 115.06,527.22,8.86" />
        <lane id="C2CC_1" index="1" speed="13.41" length="292.60" shape="258.59,272.21,8.86 112.29,525.62,8.86" />
    </edge>
    <edge id="C2TL" from="C" to="TL" priority="-1">
        <lane id="C2TL_0" index="0" speed="13.41" length="276.65" shape="282.56,261.11,8.86 522.02,399.36" />
        <lane id="C2TL_1" index="1" speed="13.41" length="276.65" shape="280.96,263.88,8.86 520.42,402.13" />
        <lane id="C2TL_2" index="2" speed="13.41" length="276.65" shape="279.36,266.65,8.86 518.82,404.90" />
        <lane id="C2TL_3" index="3" speed="13.41" length="276.65" shape="277.76,269.42,8.86 517.22,407.67" />
    </edge>
    <edge id="CA2C" from="CA" to="C" priority="-1">
        <lane id="CA2C_0" index="0" speed="13.41" length="286.20" shape="423.61,5.60,8.86 280.51,253.46,8.86" />
        <lane id="CA2C_1" index="1" speed="13.41" length="286.20" shape="420.84,4.00,8.86 277.74,251.86,8.86" />
        <lane id="CA2C_2" index="2" speed="13.41" length="286.20" shape="418.07,2.40,8.86 274.97,250.26,8.86" />
        <lane id="CA2C_3" index="3" speed="13.41" length="286.20" shape="415.30,0.80,8.86 272.19,248.66,8.86" />
    </edge>
    <edge id="CB2C" from="CB" to="C" priority="-1">
        <lane id="CB2C_0" index="0" speed="13.41" length="286.20" shape="5.60,101.21,8.86 253.46,244.31,8.86" />