<net xmlns:xsi="http://www.w3.org/2001/XMLSchema-instance" version="1.9" junctionCornerDetail="5" limitTurnSpeed="5.50" xsi:noNamespaceSchemaLocation="http://sumo.dlr.de/xsd/net_file.xsd">

    <location netOffset="330.47,642.44" convBoundary="0.00,0.00,937.18,963.15" origBoundary="-330.47,-642.44,606.71,320.71" projParameter="!" />

    <edge id=":A_0" function="internal">
        <lane id=":A_0_0" index="0" speed="7.33" length="11.73" shape="322.47,816.39,2.88 322.12,812.54,2.88 321.07,809.79,2.88 319.32,808.14,2.88 316.87,807.59,2.88" />
    </edge>
    <edge id=":A_1" function="internal">
        <lane id=":A_1_0" index="0" speed="13.41" length="27.20" shape="322.47,816.39,2.88 322.47,789.19,2.88" />
        <lane id=":A_1_1" index="1" speed="13.41" length="27.20" shape="325.67,816.39,2.88 325.67,789.19,2.88" />
        <lane id=":A_1_2" index="2" speed="13.41" length="27.20" shape="328.87,816.39,2.88 328.87,789.19,2.88" />
    </edge>
    <edge id=":A_4" function="internal">
        <lane id=":A_4_0" index="0" speed="9.84" length="6.30" shape="328.87,816.39,2.88 329.58,810.14,2.88" />
    </edge>
    <edge id=":A_5" function="internal">
        <lane id=":A_5_0" index="0" speed="3.65" length="1.44" shape="328.87,816.39,2.88 329.67,815.19,2.88" />
    </edge>
    <edge id=":A_21" function="internal">
        <lane id=":A_21_0" index="0" speed="9.84" length="15.70" shape="329.58,810.14,2.88 329.62,809.74,2.88 331.87,804.99,2.88 335.62,802.14,2.88 340.87,801.19,2.88" />
    </edge>
    <edge id=":A_22" function="internal">
        <lane id=":A_22_0" index="0" speed="3.65" length="3.23" shape="329.67,815.19,2.88 330.47,814.79,2.88 331.27,815.19,2.88 332.07,816.39,2.88" />
    </edge>
    <edge id=":A_6" function="internal">
        <lane id=":A_6_0" index="0" speed="6.51" length="9.03" shape="340.87,810.79,2.88 338.42,811.14,2.88 336.67,812.19,2.88 335.62,813.94,2.88 335.27,816.39,2.88" />
    </edge>
    <edge id=":A_7" function="internal">
        <lane id=":A_7_0" index="0" speed="13.41" length="24.27" shape="340.87,810.79,2.88 333.42,810.29,2.88 328.08,809.19,2.88 323.14,808.09,2.88 316.87,807.59,2.88" />
        <lane id=":A_7_1" index="1" speed="13.41" length="24.27" shape="340.87,807.59,2.88 333.42,807.09,2.88 328.08,805.99,2.88 323.14,804.89,2.88 316.87,804.39,2.88" />
    </edge>
    <edge id=":A_9" function="internal">
        <lane id=":A_9_0" index="0" speed="9.84" length="5.46" shape="340.87,804.39,2.88 335.62,803.44,2.88 335.52,803.37,2.88" />
    </edge>
    <edge id=":A_10" function="internal">
        <lane id=":A_10_0" index="0" speed="3.65" length="1.44" shape="340.87,804.39,2.88 339.67,803.59,2.88" />
    </edge>
    <edge id=":A_23" function="internal">
        <lane id=":A_23_0" index="0" speed="9.84" length="16.53" shape="335.52,803.37,2.88 331.87,800.59,2.88 329.62,795.84,2.88 328.87,789.19,2.88" />
    </edge>
    <edge id=":A_24" function="internal">
        <lane id=":A_24_0" index="0" speed="3.65" length="3.23" shape="339.67,803.59,2.88 339.27,802.79,2.88 339.67,801.99,2.88 340.87,801.19,2.88" />
    </edge>
    <edge id=":A_11" function="internal">
        <lane id=":A_11_0" index="0" speed="7.33" length="11.73" shape="335.27,789.19,2.88 335.62,793.04,2.88 336.67,795.79,2.88 338.42,797.44,2.88 340.87,797.99,2.88" />
    </edge>
    <edge id=":A_12" function="internal">
        <lane id=":A_12_0" index="0" speed="13.41" length="27.20" shape="335.27,789.19,2.88 335.27,816.39,2.88" />
        <lane id=":A_12_1" index="1" speed="13.41" length="27.20" shape="332.07,789.19,2.88 332.07,816.39,2.88" />
    </edge>
    <edge id=":A_14" function="internal">
        <lane id=":A_14_0" index="0" speed="10.36" length="5.01" shape="332.07,789.19,2.88 331.36,794.16,2.88" />
    </edge>
    <edge id=":A_15" function="internal">
        <lane id=":A_15_0" index="0" speed="3.65" length="1.44" shape="332.07,789.19,2.88 331.27,790.39,2.88" />
    </edge>
    <edge id=":A_25" function="internal">
        <lane id=":A_25_0" index="0" speed="10.36" length="19.50" shape="331.36,794.16,2.88 331.12,795.84,2.88 328.27,800.59,2.88 323.52,803.44,2.88 316.87,804.39,2.88" />
    </edge>
    <edge id=":A_26" function="internal">
        <lane id=":A_26_0" index="0" speed="3.65" length="3.23" shape="331.27,790.39,2.88 330.47,790.79,2.88 329.67,790.39,2.88 328.87,789.19,2.88" />
    </edge>
    <edge id=":A_16" function="internal">
        <lane id=":A_16_0" index="0" speed="6.51" length="9.03" shape="316.87,794.79,2.88 319.32,794.44,2.88 321.07,793.39,2.88 322.12,791.64,2.88 322.47,789.19,2.88" />
    </edge>
    <edge id=":A_17" function="internal">
        <lane id=":A_17_0" index="0" speed="13.41" length="24.27" shape="316.87,794.79,2.88 324.32,795.29,2.88 329.66,796.39,2.88 334.60,797.49,2.88 340.87,797.99,2.88" />
        <lane id=":A_17_1" index="1" speed="13.41" length="24.27" shape="316.87,797.99,2.88 324.32,798.49,2.88 329.66,799.59,2.88 334.60,800.69,2.88 340.87,801.19,2.88" />
    </edge>
    <edge id=":A_19" function="internal">
        <lane id=":A_19_0" index="0" speed="10.36" length="7.35" shape="316.87,801.19,2.88 323.52,802.14,2.88 324.06,802.47,2.88" />
    </edge>
    <edge id=":A_20" function="internal">
        <lane id=":A_20_0" index="0" speed="3.65" length="1.44" shape="316.87,801.19,2.88 318.07,801.99,2.88" />
    </edge>
    <edge id=":A_27" function="internal">
        <lane id=":A_27_0" index="0" speed="10.36" length="17.17" shape="324.06,802.47,2.88 328.27,804.99,2.88 331.12,809.74,2.88 332.07,816.39,2.88" />
    </edge>
    <edge id=":A_28" function="internal">
        <lane id=":A_28_0" index="0" speed="3.65" length="3.23" shape="318.07,801.99,2.88 318.47,802.79,2.88 318.07,803.59,2.88 316.87,804.39,2.88" />
    </edge>
    <edge id=":AA_0" function="internal">
        <lane id=":AA_0_0" index="0" speed="3.65" length="4.67" shape="170.12,804.39,2.88 168.92,803.59,2.88 168.52,802.79,2.88 168.92,801.99,2.88 170.12,801.19,2.88" />
    </edge>
    <edge id=":AB_0" function="internal">
        <lane id=":AB_0_0" index="0" speed="3.65" length="4.67" shape="332.07,963.15,2.88 331.27,964.35,2.88 330.47,964.75,2.88 329.67,964.35,2.88 328.87,963.15,2.88" />
    </edge>
    <edge id=":AC_0" function="internal">
        <lane id=":AC_0_0" index="0" speed="3.65" length="4.67" shape="490.82,801.19,2.88 492.02,801.99,2.88 492.42,802.79,2.88 492.02,803.59,2.88 490.82,804.39,2.88" />
    </edge>
    <edge id=":B_0" function="internal">
        <lane id=":B_0_0" index="0" speed="6.51" length="9.03" shape="632.23,649.64,0.65 631.88,647.19,0.64 630.83,645.44,0.64 629.08,644.39,0.64 626.63,644.04,0.63" />
    </edge>
    <edge id=":B_1" function="internal">
        <lane id=":B_1_0" index="0" speed="11.18" length="14.40" shape="632.23,649.64,0.65 632.23,635.24,0.65" />
    </edge>
    <edge id=":B_2" function="internal">
        <lane id=":B_2_0" index="0" speed="8.00" length="4.07" shape="632.23,649.64,0.65 632.78,645.79,0.65 632.87,645.64,0.65" />
    </edge>
    <edge id=":B_3" function="internal">
        <lane id=":B_3_0" index="0" speed="3.65" length="1.44" shape="632.23,649.64,0.65 633.03,648.44,0.65" />
    </edge>
    <edge id=":B_16" function="internal">
        <lane id=":B_16_0" index="0" speed="8.00" length="10.13" shape="632.87,645.64,0.65 634.43,643.04,0.65 637.18,641.39,0.65 641.03,640.84,0.65" />
    </edge>
    <edge id=":B_17" function="internal">
        <lane id=":B_17_0" index="0" speed="3.65" length="3.23" shape="633.03,648.44,0.65 633.83,648.04,0.65 634.63,648.44,0.65 635.43,649.64,0.65" />
    </edge>
    <edge id=":B_4" function="internal">
        <lane id=":B_4_0" index="0" speed="6.51" length="9.03" shape="641.03,644.04,0.65 638.58,644.39,0.65 636.83,645.44,0.65 635.78,647.19,0.65 635.43,649.64,0.65" />
    </edge>
    <edge id=":B_5" function="internal">
        <lane id=":B_5_0" index="0" speed="11.18" length="14.40" shape="641.03,644.04,0.65 626.63,644.04,0.63" />
    </edge>
    <edge id=":B_6" function="internal">
        <lane id=":B_6_0" index="0" speed="8.00" length="4.07" shape="641.03,644.04,0.65 637.18,643.49,0.65 637.03,643.40,0.65" />
    </edge>
    <edge id=":B_7" function="internal">
        <lane id=":B_7_0" index="0" speed="3.65" length="1.44" shape="641.03,644.04,0.65 639.83,643.24,0.65" />
    </edge>
    <edge id=":B_18" function="internal">
        <lane id=":B_18_0" index="0" speed="8.00" length="10.13" shape="637.03,643.40,0.65 634.43,641.84,0.65 632.78,639.09,0.65 632.23,635.24,0.65" />
    </edge>
    <edge id=":B_19" function="internal">
        <lane id=":B_19_0" index="0" speed="3.65" length="3.23" shape="639.83,643.24,0.65 639.43,642.44,0.65 639.83,641.64,0.65 641.03,640.84,0.65" />
    </edge>
    <edge id=":B_8" function="internal">
        <lane id=":B_8_0" index="0" speed="6.51" length="9.03" shape="635.43,635.24,0.65 635.78,637.69,0.65 636.83,639.44,0.65 638.58,640.49,0.65 641.03,640.84,0.65" />
    </edge>
    <edge id=":B_9" function="internal">
        <lane id=":B_9_0" index="0" speed="11.18" length="14.40" shape="635.43,635.24,0.65 635.43,649.64,0.65" />
    </edge>
    <edge id=":B_10" function="internal">
        <lane id=":B_10_0" index="0" speed="8.00" length="4.07" shape="635.43,635.24,0.65 634.88,639.09,0.64 634.79,639.24,0.64" />
    </edge>
    <edge id=":B_11" function="internal">
        <lane id=":B_11_0" index="0" speed="3.65" length="1.44" shape="635.43,635.24,0.65 634.63,636.44,0.65" />
    </edge>
    <edge id=":B_20" function="internal">
        <lane id=":B_20_0" index="0" speed="8.00" length="10.13" shape="634.79,639.24,0.64 633.23,641.84,0.64 630.48,643.49,0.64 626.63,644.04,0.63" />
    </edge>
    <edge id=":B_21" function="internal">
        <lane id=":B_21_0" index="0" speed="3.65" length="3.23" shape="634.63,636.44,0.65 633.83,636.84,0.65 633.03,636.44,0.65 632.23,635.24,0.65" />
    </edge>
    <edge id=":B_12" function="internal">
        <lane id=":B_12_0" index="0" speed="6.51" length="9.03" shape="626.63,640.84,0.63 629.08,640.49,0.64 630.83,639.44,0.64 631.88,637.69,0.64 632.23,635.24,0.65" />
    </edge>
    <edge id=":B_13" function="internal">
        <lane id=":B_13_0" index="0" speed="11.18" length="14.40" shape="626.63,640.84,0.63 641.03,640.84,0.65" />
    </edge>
    <edge id=":B_14" function="internal">
        <lane id=":B_14_0" index="0" speed="8.00" length="4.07" shape="626.63,640.84,0.63 630.48,641.39,0.64 630.63,641.48,0.64" />
    </edge>
    <edge id=":B_15" function="internal">
        <lane id=":B_15_0" index="0" speed="3.65" length="1.44" shape="626.63,640.84,0.63 627.83,641.64,0.63" />
    </edge>
    <edge id=":B_22" function="internal">
        <lane id=":B_22_0" index="0" speed="8.00" length="10.13" shape="630.63,641.48,0.64 633.23,643.04,0.64 634.88,645.79,0.64 635.43,649.64,0.65" />
    </edge>
    <edge id=":B_23" function="internal">
        <lane id=":B_23_0" index="0" speed="3.65" length="3.23" shape="627.83,641.64,0.63 628.23,642.44,0.63 627.83,643.24,0.63 626.63,644.04,0.63" />
    </edge>
    <edge id=":BA_0" function="internal">
        <lane id=":BA_0_0" index="0" speed="3.65" length="4.67" shape="635.43,945.80,0.65 634.63,947.00,0.65 633.83,947.40,0.65 633.03,947.00,0.65 632.23,945.80,0.65" />
    </edge>
    <edge id=":BB_0" function="internal">
        <lane id=":BB_0_0" index="0" speed="3.65" length="4.67" shape="937.18,640.84,0.65 938.38,641.64,0.65 938.78,642.44,0.65 938.38,643.24,0.65 937.18,644.04,0.65" />
    </edge>
    <edge id=":BC_0" function="internal">
        <lane id=":BC_0_0" index="0" speed="3.65" length="4.67" shape="632.23,339.08,0.65 633.03,337.88,0.65 633.83,337.48,0.65 634.63,337.88,0.65 635.43,339.08,0.65" />
    </edge>
    <edge id=":C_0" function="internal">
        <lane id=":C_0_0" index="0" speed="7.33" length="11.73" shape="325.67,334.82,-3.84 325.32,330.97,-3.90 324.27,328.22,-3.94 322.52,326.57,-3.98 320.07,326.02,-4.01" />
    </edge>
    <edge id=":C_1" function="internal">
        <lane id=":C_1_0" index="0" speed="13.41" length="27.20" shape="325.67,334.82,-3.84 325.67,307.62,-4.01" />
        <lane id=":C_1_1" index="1" speed="13.41" length="27.20" shape="328.87,334.82,-3.84 328.87,307.62,-4.01" />
    </edge>
    <edge id=":C_3" function="internal">
        <lane id=":C_3_0" index="0" speed="10.36" length="5.01" shape="328.87,334.82,-3.84 329.58,329.86,-3.88" />
    </edge>
    <edge id=":C_4" function="internal">
        <lane id=":C_4_0" index="0" speed="3.65" length="1.44" shape="328.87,334.82,-3.84 329.67,333.62,-3.84" />
    </edge>
    <edge id=":C_21" function="internal">
        <lane id=":C_21_0" index="0" speed="10.36" length="19.50" shape="329.58,329.86,-3.88 329.82,328.17,-3.89 332.67,323.42,-3.93 337.42,320.57,-3.97 344.07,319.62,-4.01" />
    </edge>
    <edge id=":C_22" function="internal">
        <lane id=":C_22_0" index="0" speed="3.65" length="3.23" shape="329.67,333.62,-3.84 330.47,333.22,-3.84 331.27,333.62,-3.84 332.07,334.82,-3.84" />
    </edge>
    <edge id=":C_5" function="internal">
        <lane id=":C_5_0" index="0" speed="6.51" length="9.03" shape="344.07,329.22,-4.01 341.62,329.57,-3.97 339.87,330.62,-3.93 338.82,332.37,-3.89 338.47,334.82,-3.84" />
    </edge>
    <edge id=":C_6" function="internal">
        <lane id=":C_6_0" index="0" speed="13.41" length="24.27" shape="344.07,329.22,-4.01 336.62,328.72,-4.01 331.28,327.62,-4.01 326.34,326.52,-4.01 320.07,326.02,-4.01" />
        <lane id=":C_6_1" index="1" speed="13.41" length="24.27" shape="344.07,326.02,-4.01 336.62,325.52,-4.01 331.28,324.42,-4.01 326.34,323.32,-4.01 320.07,322.82,-4.01" />
    </edge>
    <edge id=":C_8" function="internal">
        <lane id=":C_8_0" index="0" speed="10.36" length="7.35" shape="344.07,322.82,-4.01 337.42,321.87,-4.01 336.88,321.55,-4.01" />
    </edge>
    <edge id=":C_9" function="internal">
        <lane id=":C_9_0" index="0" speed="3.65" length="1.44" shape="344.07,322.82,-4.01 342.87,322.02,-4.01" />
    </edge>
    <edge id=":C_23" function="internal">
        <lane id=":C_23_0" index="0" speed="10.36" length="17.17" shape="336.88,321.55,-4.01 332.67,319.02,-4.01 329.82,314.27,-4.01 328.87,307.62,-4.01" />
    </edge>
    <edge id=":C_24" function="internal">
        <lane id=":C_24_0" index="0" speed="3.65" length="3.23" shape="342.87,322.02,-4.01 342.47,321.22,-4.01 342.87,320.42,-4.01 344.07,319.62,-4.01" />
    </edge>
    <edge id=":C_10" function="internal">
        <lane id=":C_10_0" index="0" speed="7.33" length="11.73" shape="338.47,307.62,-4.01 338.82,311.47,-4.01 339.87,314.22,-4.01 341.62,315.87,-4.01 344.07,316.42,-4.01" />
    </edge>
    <edge id=":C_11" function="internal">
        <lane id=":C_11_0" index="0" speed="13.41" length="27.20" shape="338.47,307.62,-4.01 338.47,334.82,-3.84" />
        <lane id=":C_11_1" index="1" speed="13.41" length="27.20" shape="335.27,307.62,-4.01 335.27,334.82,-3.84" />
        <lane id=":C_11_2" index="2" speed="13.41" length="27.20" shape="332.07,307.62,-4.01 332.07,334.82,-3.84" />
    </edge>
    <edge id=":C_14" function="internal">
        <lane id=":C_14_0" index="0" speed="9.84" length="6.30" shape="332.07,307.62,-4.01 331.36,313.88,-4.01" />
    </edge>
    <edge id=":C_15" function="internal">
        <lane id=":C_15_0" index="0" speed="3.65" length="1.44" shape="332.07,307.62,-4.01 331.27,308.82,-4.01" />
    </edge>
    <edge id=":C_25" function="internal">
        <lane id=":C_25_0" index="0" speed="9.84" length="15.70" shape="331.36,313.88,-4.01 331.32,314.27,-4.01 329.07,319.02,-4.01 325.32,321.87,-4.01 320.07,322.82,-4.01" />
    </edge>
    <edge id=":C_26" function="internal">
        <lane id=":C_26_0" index="0" speed="3.65" length="3.23" shape="331.27,308.82,-4.01 330.47,309.22,-4.01 329.67,308.82,-4.01 328.87,307.62,-4.01" />
    </edge>
    <edge id=":C_16" function="internal">
        <lane id=":C_16_0" index="0" speed="6.51" length="9.03" shape="320.07,313.22,-4.01 322.52,312.87,-4.01 324.27,311.82,-4.01 325.32,310.07,-4.01 325.67,307.62,-4.01" />
    </edge>
    <edge id=":C_17" function="internal">
        <lane id=":C_17_0" index="0" speed="13.41" length="24.27" shape="320.07,313.22,-4.01 327.52,313.72,-4.01 332.86,314.82,-4.01 337.80,315.92,-4.01 344.07,316.42,-4.01" />
        <lane id=":C_17_1" index="1" speed="13.41" length="24.27" shape="320.07,316.42,-4.01 327.52,316.92,-4.01 332.86,318.02,-4.01 337.80,319.12,-4.01 344.07,319.62,-4.01" />
    </edge>
    <edge id=":C_19" function="internal">
        <lane id=":C_19_0" index="0" speed="9.84" length="5.46" shape="320.07,319.62,-4.01 325.32,320.57,-3.97 325.42,320.65,-3.97" />
    </edge>
    <edge id=":C_20" function="internal">
        <lane id=":C_20_0" index="0" speed="3.65" length="1.44" shape="320.07,319.62,-4.01 321.27,320.42,-4.01" />
    </edge>
    <edge id=":C_27" function="internal">
        <lane id=":C_27_0" index="0" speed="9.84" length="16.53" shape="325.42,320.65,-3.97 329.07,323.42,-3.94 331.32,328.17,-3.90 332.07,334.82,-3.84" />
    </edge>
    <edge id=":C_28" function="internal">
        <lane id=":C_28_0" index="0" speed="3.65" length="3.23" shape="321.27,320.42,-4.01 321.67,321.22,-4.01 321.27,322.02,-4.01 320.07,322.82,-4.01" />
    </edge>
    <edge id=":CA_0" function="internal">
        <lane id=":CA_0_0" index="0" speed="3.65" length="4.67" shape="651.69,319.62,-4.01 652.89,320.42,-4.01 653.29,321.22,-4.01 652.89,322.02,-4.01 651.69,322.82,-4.01" />
    </edge>
    <edge id=":CB_0" function="internal">
        <lane id=":CB_0_0" index="0" speed="3.65" length="4.67" shape="328.87,-0.00,-4.01 329.67,-1.20,-4.01 330.47,-1.60,-4.01 331.27,-1.20,-4.01 332.07,0.00,-4.01" />
    </edge>
    <edge id=":CC_0" function="internal">
        <lane id=":CC_0_0" index="0" speed="3.65" length="4.67" shape="9.25,322.82,-4.01 8.05,322.02,-4.01 7.65,321.22,-4.01 8.05,320.42,-4.01 9.25,319.62,-4.01" />
    </edge>
    <edge id=":D_0" function="internal">
        <lane id=":D_0_0" index="0" speed="6.51" length="9.03" shape="163.64,649.64,0.35 163.29,647.19,0.35 162.24,645.44,0.35 160.49,644.39,0.35 158.04,644.04,0.35" />
    </edge>
    <edge id=":D_1" function="internal">
        <lane id=":D_1_0" index="0" speed="11.18" length="14.40" shape="163.64,649.64,0.35 163.64,635.24,0.35" />
    </edge>
    <edge id=":D_2" function="internal">
        <lane id=":D_2_0" index="0" speed="8.00" length="4.07" shape="163.64,649.64,0.35 164.19,645.79,0.35 164.28,645.64,0.35" />
    </edge>
    <edge id=":D_3" function="internal">
        <lane id=":D_3_0" index="0" speed="3.65" length="1.44" shape="163.64,649.64,0.35 164.44,648.44,0.35" />
    </edge>
    <edge id=":D_16" function="internal">
        <lane id=":D_16_0" index="0" speed="8.00" length="10.13" shape="164.28,645.64,0.35 165.84,643.04,0.34 168.59,641.39,0.34 172.44,640.84,0.34" />
    </edge>
    <edge id=":D_17" function="internal">
        <lane id=":D_17_0" index="0" speed="3.65" length="3.23" shape="164.44,648.44,0.35 165.24,648.04,0.35 166.04,648.44,0.35 166.84,649.64,0.35" />
    </edge>
    <edge id=":D_4" function="internal">
        <lane id=":D_4_0" index="0" speed="6.51" length="9.03" shape="172.44,644.04,0.34 169.99,644.39,0.34 168.24,645.44,0.34 167.19,647.19,0.35 166.84,649.64,0.35" />
    </edge>
    <edge id=":D_5" function="internal">
        <lane id=":D_5_0" index="0" speed="11.18" length="14.40" shape="172.44,644.04,0.34 158.04,644.04,0.35" />
    </edge>
    <edge id=":D_6" function="internal">
        <lane id=":D_6_0" index="0" speed="8.00" length="4.07" shape="172.44,644.04,0.34 168.59,643.49,0.34 168.43,643.40,0.34" />
    </edge>
    <edge id=":D_7" function="internal">
        <lane id=":D_7_0" index="0" speed="3.65" length="1.44" shape="172.44,644.04,0.34 171.24,643.24,0.34" />
    </edge>
    <edge id=":D_18" function="internal">
        <lane id=":D_18_0" index="0" speed="8.00" length="10.13" shape="168.43,643.40,0.34 165.84,641.84,0.34 164.19,639.09,0.35 163.64,635.24,0.35" />
    </edge>
    <edge id=":D_19" function="internal">
        <lane id=":D_19_0" index="0" speed="3.65" length="3.23" shape="171.24,643.24,0.34 170.84,642.44,0.34 171.24,641.64,0.34 172.44,640.84,0.34" />
    </edge>
    <edge id=":D_8" function="internal">
        <lane id=":D_8_0" index="0" speed="6.51" length="9.03" shape="166.84,635.24,0.35 167.19,637.69,0.35 168.24,639.44,0.34 169.99,640.49,0.34 172.44,640.84,0.34" />
    </edge>
    <edge id=":D_9" function="internal">
        <lane id=":D_9_0" index="0" speed="11.18" length="14.40" shape="166.84,635.24,0.35 166.84,649.64,0.35" />
    </edge>
    <edge id=":D_10" function="internal">
        <lane id=":D_10_0" index="0" speed="8.00" length="4.07" shape="166.84,635.24,0.35 166.29,639.09,0.35 166.19,639.24,0.35" />
    </edge>
    <edge id=":D_11" function="internal">
        <lane id=":D_11_0" index="0" speed="3.65" length="1.44" shape="166.84,635.24,0.35 166.04,636.44,0.35" />
    </edge>
    <edge id=":D_20" function="internal">
        <lane id=":D_20_0" index="0" speed="8.00" length="10.13" shape="166.19,639.24,0.35 164.64,641.84,0.35 161.89,643.49,0.35 158.04,644.04,0.35" />
    </edge>
    <edge id=":D_21" function="internal">
        <lane id=":D_21_0" index="0" speed="3.65" length="3.23" shape="166.04,636.44,0.35 165.24,636.84,0.35 164.44,636.44,0.35 163.64,635.24,0.35" />
    </edge>
    <edge id=":D_12" function="internal">
        <lane id=":D_12_0" index="0" speed="6.51" length="9.03" shape="158.04,640.84,0.35 160.49,640.49,0.35 162.24,639.44,0.35 163.29,637.69,0.35 163.64,635.24,0.35" />
    </edge>
    <edge id=":D_13" function="internal">
        <lane id=":D_13_0" index="0" speed="11.18" length="14.40" shape="158.04,640.84,0.35 172.44,640.84,0.34" />
    </edge>
    <edge id=":D_14" function="internal">
        <lane id=":D_14_0" index="0" speed="8.00" length="4.07" shape="158.04,640.84,0.35 161.89,641.39,0.35 162.04,641.48,0.35" />
    </edge>
    <edge id=":D_15" function="internal">
        <lane id=":D_15_0" index="0" speed="3.65" length="1.44" shape="158.04,640.84,0.35 159.24,641.64,0.35" />
    </edge>
    <edge id=":D_22" function="internal">
        <lane id=":D_22_0" index="0" speed="8.00" length="10.13" shape="162.04,641.48,0.35 164.64,643.04,0.35 166.29,645.79,0.35 166.84,649.64,0.35" />
    </edge>
    <edge id=":D_23" function="internal">
        <lane id=":D_23_0" index="0" speed="3.65" length="3.23" shape="159.24,641.64,0.35 159.64,642.44,0.35 159.24,643.24,0.35 158.04,644.04,0.35" />
    </edge>
    <edge id=":DA_0" function="internal">
        <lane id=":DA_0_0" index="0" speed="3.65" length="4.67" shape="163.64,477.21,0.35 164.44,476.01,0.35 165.24,475.61,0.35 166.04,476.01,0.35 166.84,477.21,0.35" />
    </edge>
    <edge id=":DB_0" function="internal">
        <lane id=":DB_0_0" index="0" speed="3.65" length="4.67" shape="-0.00,644.04,0.35 -1.20,643.24,0.35 -1.60,642.44,0.35 -1.20,641.64,0.35 -0.00,640.84,0.35" />
    </edge>
    <edge id=":DC_0" function="internal">
        <lane id=":DC_0_0" index="0" speed="3.65" length="4.67" shape="166.84,807.68,0.35 166.04,808.88,0.35 165.24,809.28,0.35 164.44,808.88,0.35 163.64,807.68,0.35" />
    </edge>
    <edge id=":TL_0" function="internal">
        <lane id=":TL_0_0" index="0" speed="6.51" length="9.03" shape="322.47,649.64,0.14 322.12,647.19,0.11 321.07,645.44,0.09 319.32,644.39,0.06 316.87,644.04,0.03" />
    </edge>
    <edge id=":TL_1" function="internal">
        <lane id=":TL_1_0" index="0" speed="13.41" length="14.71" shape="322.47,649.64,0.14 322.97,645.32,0.07 324.07,642.44,0.03 325.17,639.56,-0.02 325.67,635.24,-0.09" />
        <lane id=":TL_1_1" index="1" speed="13.41" length="14.71" shape="325.67,649.64,0.14 326.17,645.32,0.07 327.27,642.44,0.03 328.37,639.56,-0.02 328.87,635.24,-0.09" />
        <lane id=":TL_1_2" index="2" speed="13.41" length="14.71" shape="328.87,649.64,0.14 328.87,635.24,-0.09" />
    </edge>
    <edge id=":TL_4" function="internal">
        <lane id=":TL_4_0" index="0" speed="9.32" length="3.97" shape="328.87,649.64,0.14 329.82,645.79,0.12" />
    </edge>
    <edge id=":TL_13" function="internal">
        <lane id=":TL_13_0" index="0" speed="9.32" length="15.66" shape="329.82,645.79,0.12 332.67,643.04,0.10 337.42,641.39,0.07 344.07,640.84,0.03" />
    </edge>
    <edge id=":TL_5" function="internal">
        <lane id=":TL_5_0" index="0" speed="7.33" length="11.73" shape="344.07,644.04,0.03 340.22,644.39,0.06 337.47,645.44,0.09 335.82,647.19,0.11 335.27,649.64,0.13" />
    </edge>
    <edge id=":TL_6" function="internal">
        <lane id=":TL_6_0" index="0" speed="11.18" length="27.20" shape="344.07,644.04,0.03 316.87,644.04,0.03" />
    </edge>
    <edge id=":TL_7" function="internal">
        <lane id=":TL_7_0" index="0" speed="6.51" length="9.03" shape="338.47,635.24,-0.09 338.82,637.69,-0.06 339.87,639.44,-0.03 341.62,640.49,-0.00 344.07,640.84,0.03" />
    </edge>
    <edge id=":TL_8" function="internal">
        <lane id=":TL_8_0" index="0" speed="13.41" length="14.87" shape="338.47,635.24,-0.09 337.97,639.56,-0.03 336.87,642.44,0.02 335.77,645.32,0.07 335.27,649.64,0.13" />
        <lane id=":TL_8_1" index="1" speed="13.41" length="14.87" shape="335.27,635.24,-0.09 334.77,639.56,-0.03 333.67,642.44,0.02 332.57,645.32,0.07 332.07,649.64,0.13" />
    </edge>
    <edge id=":TL_10" function="internal">
        <lane id=":TL_10_0" index="0" speed="9.32" length="3.03" shape="332.07,635.24,-0.09 331.34,638.18,-0.07" />
    </edge>
    <edge id=":TL_14" function="internal">
        <lane id=":TL_14_0" index="0" speed="9.32" length="16.60" shape="331.34,638.18,-0.07 331.12,639.09,-0.07 328.27,641.84,-0.04 323.52,643.49,-0.01 316.87,644.04,0.03" />
    </edge>
    <edge id=":TL_11" function="internal">
        <lane id=":TL_11_0" index="0" speed="7.33" length="11.73" shape="316.87,640.84,0.03 320.72,640.49,-0.01 323.47,639.44,-0.04 325.12,637.69,-0.06 325.67,635.24,-0.09" />
    </edge>
    <edge id=":TL_12" function="internal">
        <lane id=":TL_12_0" index="0" speed="11.18" length="27.20" shape="316.87,640.84,0.03 344.07,640.84,0.03" />
    </edge>

    <edge id="A2AA" from="A" to="AA" priority="-1">
        <lane id="A2AA_0" index="0" speed="13.41" length="146.75" shape="316.87,807.59,2.88 170.12,807.59,2.88" />
        <lane id="A2AA_1" index="1" speed="13.41" length="146.75" shape="316.87,804.39,2.88 170.12,804.39,2.88" />
    </edge>
    <edge id="A2AB" from="A" to="AB" priority="-1">
        <lane id="A2AB_0" index="0" speed="13.41" length="146.75" shape="335.27,816.39,2.88 335.27,963.15,2.88" />
        <lane id="A2AB_1" index="1" speed="13.41" length="146.75" shape="332.07,816.39,2.88 332.07,963.15,2.88" />
    </edge>
    <edge id="A2AC" from="A" to="AC" priority="-1">
        <lane id="A2AC_0" index="0" speed="13.41" length="149.95" shape="340.87,797.99,2.88 490.82,797.99,2.88" />
        <lane id="A2AC_1" index="1" speed="13.41" length="149.95" shape="340.87,801.19,2.88 490.82,801.19,2.88" />
    </edge>
    <edge id="A2TL" from="A" to="TL" priority="-1">
        <lane id="A2TL_0" index="0" speed="13.41" length="139.58" shape="322.47,789.19,2.88 322.47,649.64,0.14" />
        <lane id="A2TL_1" index="1" speed="13.41" length="139.58" shape="325.67,789.19,2.88 325.67,649.64,0.14" />
        <lane id="A2TL_2" index="2" speed="13.41" length="139.58" shape="328.87,789.19,2.88 328.87,649.64,0.14" />
    </edge>
    <edge id="AA2A" from="AA" to="A" priority="-1">
        <lane id="AA2A_0" index="0" speed="13.41" length="146.75" shape="170.12,794.79,2.88 316.87,794.79,2.88" />
        <lane id="AA2A_1" index="1" speed="13.41" length="146.75" shape="170.12,797.99,2.88 316.87,797.99,2.88" />
        <lane id="AA2A_2" index="2" speed="13.41" length="146.75" shape="170.12,801.19,2.88 316.87,801.19,2.88" />
    </edge>
    <edge id="AB2A" from="AB" to="A" priority="-1">
        <lane id="AB2A_0" index="0" speed="13.41" length="146.75" shape="322.47,963.15,2.88 322.47,816.39,2.88" />
        <lane id="AB2A_1" index="1" speed="13.41" length="146.75" shape="325.67,963.15,2.88 325.67,816.39,2.88" />
        <lane id="AB2A_2" index="2" speed="13.41" length="146.75" shape="328.87,963.15,2.88 328.87,816.39,2.88" />
    </edge>
    <edge id="AC2A" from="AC" to="A" priority="-1">
        <lane id="AC2A_0" index="0" speed="13.41" length="149.95" shape="490.82,810.79,2.88 340.87,810.79,2.88" />
        <lane id="AC2A_1" index="1" speed="13.41" length="149.95" shape="490.82,807.59,2.88 340.87,807.59,2.88" />
        <lane id="AC2A_2" index="2" speed="13.41" length="149.95" shape="490.82,804.39,2.88 340.87,804.39,2.88" />
    </edge>
    <edge id="B2BA" from="B" to="BA" priority="-1">
        <lane id="B2BA_0" index="0" speed="11.18" length="296.16" shape="635.43,649.64,0.65 635.43,945.80,0.65" />
    </edge>
    <edge id="B2BB" from="B" to="BB" priority="-1">
        <lane id="B2BB_0" index="0" speed="11.18" length="296.16" shape="641.03,640.84,0.65 937.18,640.84,0.65" />
    </edge>
    <edge id="B2BC" from="B" to="BC" priority="-1">
        <lane id="B2BC_0" index="0" speed="11.18" length="296.16" shape="632.23,635.24,0.65 632.23,339.08,0.65" />
    </edge>
    <edge id="B2TL" from="B" to="TL" priority="-1">
        <lane id="B2TL_0" index="0" speed="11.18" length="282.56" shape="626.63,644.04,0.63 344.07,644.04,0.03" />
    </edge>
    <edge id="BA2B" from="BA" to="B" priority="-1">
        <lane id="BA2B_0" index="0" speed="11.18" length="296.16" shape="632.23,945.80,0.65 632.23,649.64,0.65" />
    </edge>
    <edge id="BB2B" from="BB" to="B" priority="-1">
        <lane id="BB2B_0" index="0" speed="11.18" length="296.16" shape="937.18,644.04,0.65 641.03,644.04,0.65" />
    </edge>
    <edge id="BC2B" from="BC" to="B" priority="-1">
        <lane id="BC2B_0" index="0" speed="11.18" length="296.16" shape="635.43,339.08,0.65 635.43,635.24,0.65" />
    </edge>
    <edge id="C2CA" from="C" to="CA" priority="-1">