<net xmlns:xsi="http://www.w3.org/2001/XMLSchema-instance" version="1.9" junctionCornerDetail="5" limitTurnSpeed="5.50" xsi:noNamespaceSchemaLocation="http://sumo.dlr.de/xsd/net_file.xsd">

    <location netOffset="1050.54,525.27" convBoundary="0.00,0.00,1922.66,1050.54" origBoundary="-1050.54,-525.27,872.12,525.27" projParameter="!" />

    <edge id=":A_0" function="internal">
        <lane id=":A_0_0" index="0" speed="7.33" length="11.73" shape="1039.34,719.12,7.28 1038.99,715.27,7.28 1037.94,712.52,7.28 1036.19,710.87,7.28 1033.74,710.32,7.28" />
    </edge>
    <edge id=":A_1" function="internal">
        <lane id=":A_1_0" index="0" speed="13.41" length="33.60" shape="1039.34,719.12,7.28 1039.34,685.52,7.28" />
        <lane id=":A_1_1" index="1" speed="13.41" length="33.60" shape="1042.54,719.12,7.28 1042.54,685.52,7.28" />
        <lane id=":A_1_2" index="2" speed="13.41" length="33.60" shape="1045.74,719.12,7.28 1045.74,685.52,7.28" />
        <lane id=":A_1_3" index="3" speed="13.41" length="33.60" shape="1048.94,719.12,7.28 1048.94,685.52,7.28" />
    </edge>
    <edge id=":A_5" function="internal">
        <lane id=":A_5_0" index="0" speed="10.88" length="6.03" shape="1048.94,719.12,7.28 1049.64,713.13,7.28" />
    </edge>
    <edge id=":A_6" function="internal">
        <lane id=":A_6_0" index="0" speed="3.65" length="1.44" shape="1048.94,719.12,7.28 1049.74,717.92,7.28" />
    </edge>
    <edge id=":A_25" function="internal">
        <lane id=":A_25_0" index="0" speed="10.88" length="21.12" shape="1049.64,713.13,7.28 1049.89,711.07,7.28 1052.74,705.32,7.28 1057.49,701.87,7.28 1064.14,700.72,7.28" />
    </edge>
    <edge id=":A_26" function="internal">
        <lane id=":A_26_0" index="0" speed="3.65" length="3.23" shape="1049.74,717.92,7.28 1050.54,717.52,7.28 1051.34,717.92,7.28 1052.14,719.12,7.28" />
    </edge>
    <edge id=":A_7" function="internal">
        <lane id=":A_7_0" index="0" speed="6.51" length="9.03" shape="1064.14,713.52,7.28 1061.69,713.87,7.28 1059.94,714.92,7.28 1058.89,716.67,7.28 1058.54,719.12,7.28" />
    </edge>
    <edge id=":A_8" function="internal">
        <lane id=":A_8_0" index="0" speed="13.41" length="30.62" shape="1064.14,713.52,7.28 1055.05,713.02,7.28 1048.83,711.92,7.28 1042.67,710.82,7.28 1033.74,710.32,7.28" />
        <lane id=":A_8_1" index="1" speed="13.41" length="30.62" shape="1064.14,710.32,7.28 1055.05,709.82,7.28 1048.83,708.72,7.28 1042.67,707.62,7.28 1033.74,707.12,7.28" />
        <lane id=":A_8_2" index="2" speed="13.41" length="30.62" shape="1064.14,707.12,7.28 1055.05,706.62,7.28 1048.83,705.52,7.28 1042.67,704.42,7.28 1033.74,703.92,7.28" />
    </edge>
    <edge id=":A_11" function="internal">
        <lane id=":A_11_0" index="0" speed="10.88" length="6.09" shape="1064.14,703.92,7.28 1058.13,702.88,7.28" />
    </edge>
    <edge id=":A_12" function="internal">
        <lane id=":A_12_0" index="0" speed="3.65" length="1.44" shape="1064.14,703.92,7.28 1062.94,703.12,7.28" />
    </edge>
    <edge id=":A_27" function="internal">
        <lane id=":A_27_0" index="0" speed="10.88" length="21.05" shape="1058.13,702.88,7.28 1057.49,702.77,7.28 1052.74,699.32,7.28 1049.89,693.57,7.28 1048.94,685.52,7.28" />
    </edge>
    <edge id=":A_28" function="internal">
        <lane id=":A_28_0" index="0" speed="3.65" length="3.23" shape="1062.94,703.12,7.28 1062.54,702.32,7.28 1062.94,701.52,7.28 1064.14,700.72,7.28" />
    </edge>
    <edge id=":A_13" function="internal">
        <lane id=":A_13_0" index="0" speed="7.33" length="11.73" shape="1058.54,685.52,7.28 1058.89,689.37,7.28 1059.94,692.12,7.28 1061.69,693.77,7.28 1064.14,694.32,7.28" />
    </edge>
    <edge id=":A_14" function="internal">
        <lane id=":A_14_0" index="0" speed="13.41" length="33.60" shape="1058.54,685.52,7.28 1058.54,719.12,7.28" />
        <lane id=":A_14_1" index="1" speed="13.41" length="33.60" shape="1055.34,685.52,7.28 1055.34,719.12,7.28" />
        <lane id=":A_14_2" index="2" speed="13.41" length="33.60" shape="1052.14,685.52,7.28 1052.14,719.12,7.28" />
    </edge>
    <edge id=":A_17" function="internal">
        <lane id=":A_17_0" index="0" speed="11.36" length="5.01" shape="1052.14,685.52,7.28 1051.43,690.48,7.28" />
    </edge>
    <edge id=":A_18" function="internal">
        <lane id=":A_18_0" index="0" speed="3.65" length="1.44" shape="1052.14,685.52,7.28 1051.34,686.72,7.28" />
    </edge>
    <edge id=":A_29" function="internal">
        <lane id=":A_29_0" index="0" speed="11.36" length="24.66" shape="1051.43,690.48,7.28 1050.99,693.57,7.28 1047.54,699.32,7.28 1041.79,702.77,7.28 1033.74,703.92,7.28" />
    </edge>
    <edge id=":A_30" function="internal">
        <lane id=":A_30_0" index="0" speed="3.65" length="3.23" shape="1051.34,686.72,7.28 1050.54,687.12,7.28 1049.74,686.72,7.28 1048.94,685.52,7.28" />
    </edge>
    <edge id=":A_19" function="internal">
        <lane id=":A_19_0" index="0" speed="6.51" length="9.03" shape="1033.74,691.12,7.28 1036.19,690.77,7.28 1037.94,689.72,7.28 1038.99,687.97,7.28 1039.34,685.52,7.28" />
    </edge>
    <edge id=":A_20" function="internal">
        <lane id=":A_20_0" index="0" speed="13.41" length="30.62" shape="1033.74,691.12,7.28 1042.83,691.62,7.28 1049.04,692.72,7.28 1055.21,693.82,7.28 1064.14,694.32,7.28" />
        <lane id=":A_20_1" index="1" speed="13.41" length="30.62" shape="1033.74,694.32,7.28 1042.83,694.82,7.28 1049.04,695.92,7.28 1055.21,697.02,7.28 1064.14,697.52,7.28" />
        <lane id=":A_20_2" index="2" speed="13.41" length="30.62" shape="1033.74,697.52,7.28 1042.83,698.02,7.28 1049.04,699.12,7.28 1055.21,700.22,7.28 1064.14,700.72,7.28" />
    </edge>
    <edge id=":A_23" function="internal">
        <lane id=":A_23_0" index="0" speed="11.36" length="7.98" shape="1033.74,700.72,7.28 1041.64,701.84,7.28" />
    </edge>
    <edge id=":A_24" function="internal">
        <lane id=":A_24_0" index="0" speed="3.65" length="1.44" shape="1033.74,700.72,7.28 1034.94,701.52,7.28" />
    </edge>
    <edge id=":A_31" function="internal">
        <lane id=":A_31_0" index="0" speed="11.36" length="21.69" shape="1041.64,701.84,7.28 1041.79,701.87,7.28 1047.54,705.32,7.28 1050.99,711.07,7.28 1052.14,719.12,7.28" />
    </edge>
    <edge id=":A_32" function="internal">
        <lane id=":A_32_0" index="0" speed="3.65" length="3.23" shape="1034.94,701.52,7.28 1035.34,702.32,7.28 1034.94,703.12,7.28 1033.74,703.92,7.28" />
    </edge>
    <edge id=":AA_0" function="internal">
        <lane id=":AA_0_0" index="0" speed="3.65" length="4.67" shape="873.49,703.92,7.28 872.29,703.12,7.28 871.89,702.32,7.28 872.29,701.52,7.28 873.49,700.72,7.28" />
    </edge>
    <edge id=":AB_0" function="internal">
        <lane id=":AB_0_0" index="0" speed="3.65" length="4.67" shape="1052.14,879.36,7.28 1051.34,880.56,7.28 1050.54,880.96,7.28 1049.74,880.56,7.28 1048.94,879.36,7.28" />
    </edge>
    <edge id=":AC_0" function="internal">
        <lane id=":AC_0_0" index="0" speed="3.65" length="4.67" shape="1227.58,700.72,7.28 1228.78,701.52,7.28 1229.18,702.32,7.28 1228.78,703.12,7.28 1227.58,703.92,7.28" />
    </edge>
    <edge id=":B_0" function="internal">
        <lane id=":B_0_0" index="0" speed="6.51" length="9.03" shape="1478.60,538.87,0.27 1478.25,536.42,0.26 1477.20,534.67,0.26 1475.45,533.62,0.26 1473.00,533.27,0.26" />
    </edge>
    <edge id=":B_1" function="internal">
        <lane id=":B_1_0" index="0" speed="15.65" length="27.20" shape="1478.60,538.87,0.27 1478.60,511.67,0.27" />
        <lane id=":B_1_1" index="1" speed="15.65" length="27.20" shape="1481.80,538.87,0.27 1481.80,511.67,0.27" />
        <lane id=":B_1_2" index="2" speed="15.65" length="27.20" shape="1485.00,538.87,0.27 1485.00,511.67,0.27" />
    </edge>
    <edge id=":B_4" function="internal">
        <lane id=":B_4_0" index="0" speed="10.36" length="5.01" shape="1485.00,538.87,0.27 1485.71,533.90,0.27" />
    </edge>
    <edge id=":B_5" function="internal">
        <lane id=":B_5_0" index="0" speed="3.65" length="1.44" shape="1485.00,538.87,0.27 1485.80,537.67,0.27" />
    </edge>
    <edge id=":B_24" function="internal">
        <lane id=":B_24_0" index="0" speed="10.36" length="19.50" shape="1485.71,533.90,0.27 1485.95,532.22,0.27 1488.80,527.47,0.27 1493.55,524.62,0.27 1500.20,523.67,0.27" />
    </edge>
    <edge id=":B_25" function="internal">
        <lane id=":B_25_0" index="0" speed="3.65" length="3.23" shape="1485.80,537.67,0.27 1486.60,537.27,0.27 1487.40,537.67,0.27 1488.20,538.87,0.27" />
    </edge>
    <edge id=":B_6" function="internal">
        <lane id=":B_6_0" index="0" speed="6.51" length="9.03" shape="1500.20,533.27,0.27 1497.75,533.62,0.27 1496.00,534.67,0.27 1494.95,536.42,0.27 1494.60,538.87,0.27" />
    </edge>
    <edge id=":B_7" function="internal">
        <lane id=":B_7_0" index="0" speed="15.65" length="27.20" shape="1500.20,533.27,0.27 1473.00,533.27,0.26" />
        <lane id=":B_7_1" index="1" speed="15.65" length="27.20" shape="1500.20,530.07,0.27 1473.00,530.07,0.26" />
        <lane id=":B_7_2" index="2" speed="15.65" length="27.20" shape="1500.20,526.87,0.27 1473.00,526.87,0.26" />
    </edge>
    <edge id=":B_10" function="internal">
        <lane id=":B_10_0" index="0" speed="10.36" length="5.01" shape="1500.20,526.87,0.27 1495.23,526.16,0.27" />
    </edge>
    <edge id=":B_11" function="internal">
        <lane id=":B_11_0" index="0" speed="3.65" length="1.44" shape="1500.20,526.87,0.27 1499.00,526.07,0.27" />
    </edge>
    <edge id=":B_26" function="internal">
        <lane id=":B_26_0" index="0" speed="10.36" length="19.50" shape="1495.23,526.16,0.27 1493.55,525.92,0.27 1488.80,523.07,0.27 1485.95,518.32,0.27 1485.00,511.67,0.27" />
    </edge>
    <edge id=":B_27" function="internal">
        <lane id=":B_27_0" index="0" speed="3.65" length="3.23" shape="1499.00,526.07,0.27 1498.60,525.27,0.27 1499.00,524.47,0.27 1500.20,523.67,0.27" />
    </edge>
    <edge id=":B_12" function="internal">
        <lane id=":B_12_0" index="0" speed="6.51" length="9.03" shape="1494.60,511.67,0.27 1494.95,514.12,0.27 1496.00,515.87,0.27 1497.75,516.92,0.27 1500.20,517.27,0.27" />
    </edge>
    <edge id=":B_13" function="internal">
        <lane id=":B_13_0" index="0" speed="15.65" length="27.20" shape="1494.60,511.67,0.27 1494.60,538.87,0.27" />
        <lane id=":B_13_1" index="1" speed="15.65" length="27.20" shape="1491.40,511.67,0.27 1491.40,538.87,0.27" />
        <lane id=":B_13_2" index="2" speed="15.65" length="27.20" shape="1488.20,511.67,0.27 1488.20,538.87,0.27" />
    </edge>
    <edge id=":B_16" function="internal">
        <lane id=":B_16_0" index="0" speed="10.36" length="5.01" shape="1488.20,511.67,0.27 1487.49,516.63,0.26" />
    </edge>
    <edge id=":B_17" function="internal">
        <lane id=":B_17_0" index="0" speed="3.65" length="1.44" shape="1488.20,511.67,0.27 1487.40,512.87,0.27" />
    </edge>
    <edge id=":B_28" function="internal">
        <lane id=":B_28_0" index="0" speed="10.36" length="19.50" shape="1487.49,516.63,0.26 1487.25,518.32,0.26 1484.40,523.07,0.26 1479.65,525.92,0.26 1473.00,526.87,0.26" />
    </edge>
    <edge id=":B_29" function="internal">
        <lane id=":B_29_0" index="0" speed="3.65" length="3.23" shape="1487.40,512.87,0.27 1486.60,513.27,0.27 1485.80,512.87,0.27 1485.00,511.67,0.27" />
    </edge>
    <edge id=":B_18" function="internal">
        <lane id=":B_18_0" index="0" speed="6.51" length="9.03" shape="1473.00,517.27,0.26 1475.45,516.92,0.26 1477.20,515.87,0.26 1478.25,514.12,0.26 1478.60,511.67,0.27" />
    </edge>
    <edge id=":B_19" function="internal">
        <lane id=":B_19_0" index="0" speed="15.65" length="27.20" shape="1473.00,517.27,0.26 1500.20,517.27,0.27" />
        <lane id=":B_19_1" index="1" speed="15.65" length="27.20" shape="1473.00,520.47,0.26 1500.20,520.47,0.27" />
        <lane id=":B_19_2" index="2" speed="15.65" length="27.20" shape="1473.00,523.67,0.26 1500.20,523.67,0.27" />
    </edge>
    <edge id=":B_22" function="internal">
        <lane id=":B_22_0" index="0" speed="10.36" length="5.01" shape="1473.00,523.67,0.26 1477.96,524.38,0.26" />
    </edge>
    <edge id=":B_23" function="internal">
        <lane id=":B_23_0" index="0" speed="3.65" length="1.44" shape="1473.00,523.67,0.26 1474.20,524.47,0.26" />
    </edge>
    <edge id=":B_30" function="internal">
        <lane id=":B_30_0" index="0" speed="10.36" length="19.50" shape="1477.96,524.38,0.26 1479.65,524.62,0.26 1484.40,527.47,0.26 1487.25,532.22,0.26 1488.20,538.87,0.27" />
    </edge>
    <edge id=":B_31" function="internal">
        <lane id=":B_31_0" index="0" speed="3.65" length="3.23" shape="1474.20,524.47,0.26 1474.60,525.27,0.26 1474.20,526.07,0.26 1473.00,526.87,0.26" />
    </edge>
    <edge id=":BA_0" function="internal">
        <lane id=":BA_0_0" index="0" speed="3.65" length="4.67" shape="1488.20,961.33,0.27 1487.40,962.53,0.27 1486.60,962.93,0.27 1485.80,962.53,0.27 1485.00,961.33,0.27" />
    </edge>
    <edge id=":BB_0" function="internal">
        <lane id=":BB_0_0" index="0" speed="3.65" length="4.67" shape="1922.66,523.67,0.27 1923.86,524.47,0.27 1924.26,525.27,0.27 1923.86,526.07,0.27 1922.66,526.87,0.27" />
    </edge>
    <edge id=":BC_0" function="internal">
        <lane id=":BC_0_0" index="0" speed="3.65" length="4.67" shape="1485.00,89.21,0.27 1485.80,88.01,0.27 1486.60,87.61,0.27 1487.40,88.01,0.27 1488.20,89.21,0.27" />
    </edge>
    <edge id=":C_0" function="internal">
        <lane id=":C_0_0" index="0" speed="6.51" length="9.03" shape="1045.74,376.47,-6.26 1045.39,374.02,-6.26 1044.34,372.27,-6.26 1042.59,371.22,-6.26 1040.14,370.87,-6.26" />
    </edge>
    <edge id=":C_1" function="internal">
        <lane id=":C_1_0" index="0" speed="13.41" length="20.80" shape="1045.74,376.47,-6.26 1045.74,355.67,-6.26" />
        <lane id=":C_1_1" index="1" speed="13.41" length="20.80" shape="1048.94,376.47,-6.26 1048.94,355.67,-6.26" />
    </edge>
    <edge id=":C_3" function="internal">
        <lane id=":C_3_0" index="0" speed="9.26" length="5.01" shape="1048.94,376.47,-6.26 1049.65,371.50,-6.26" />
    </edge>
    <edge id=":C_4" function="internal">
        <lane id=":C_4_0" index="0" speed="3.65" length="1.44" shape="1048.94,376.47,-6.26 1049.74,375.27,-6.26" />
    </edge>
    <edge id=":C_20" function="internal">
        <lane id=":C_20_0" index="0" speed="9.26" length="14.34" shape="1049.65,371.50,-6.26 1049.69,371.22,-6.26 1051.94,367.47,-6.26 1055.69,365.22,-6.26 1060.94,364.47,-6.26" />
    </edge>
    <edge id=":C_21" function="internal">
        <lane id=":C_21_0" index="0" speed="3.65" length="3.23" shape="1049.74,375.27,-6.26 1050.54,374.87,-6.26 1051.34,375.27,-6.26 1052.14,376.47,-6.26" />
    </edge>
    <edge id=":C_5" function="internal">
        <lane id=":C_5_0" index="0" speed="6.51" length="9.03" shape="1060.94,370.87,-6.26 1058.49,371.22,-6.26 1056.74,372.27,-6.26 1055.69,374.02,-6.26 1055.34,376.47,-6.26" />
    </edge>
    <edge id=":C_6" function="internal">
        <lane id=":C_6_0" index="0" speed="13.41" length="20.80" shape="1060.94,370.87,-6.26 1040.14,370.87,-6.26" />
        <lane id=":C_6_1" index="1" speed="13.41" length="20.80" shape="1060.94,367.67,-6.26 1040.14,367.67,-6.26" />
    </edge>
    <edge id=":C_8" function="internal">
        <lane id=":C_8_0" index="0" speed="9.26" length="5.01" shape="1060.94,367.67,-6.26 1055.97,366.96,-6.26" />
    </edge>
    <edge id=":C_9" function="internal">
        <lane id=":C_9_0" index="0" speed="3.65" length="1.44" shape="1060.94,367.67,-6.26 1059.74,366.87,-6.26" />
    </edge>
    <edge id=":C_22" function="internal">
        <lane id=":C_22_0" index="0" speed="9.26" length="14.34" shape="1055.97,366.96,-6.26 1055.69,366.92,-6.26 1051.94,364.67,-6.26 1049.69,360.92,-6.26 1048.94,355.67,-6.26" />
    </edge>
    <edge id=":C_23" function="internal">
        <lane id=":C_23_0" index="0" speed="3.65" length="3.23" shape="1059.74,366.87,-6.26 1059.34,366.07,-6.26 1059.74,365.27,-6.26 1060.94,364.47,-6.26" />
    </edge>
    <edge id=":C_10" function="internal">
        <lane id=":C_10_0" index="0" speed="6.51" length="9.03" shape="1055.34,355.67,-6.26 1055.69,358.12,-6.26 1056.74,359.87,-6.26 1058.49,360.92,-6.26 1060.94,361.27,-6.26" />
    </edge>
    <edge id=":C_11" function="internal">
        <lane id=":C_11_0" index="0" speed="13.41" length="20.80" shape="1055.34,355.67,-6.26 1055.34,376.47,-6.26" />
        <lane id=":C_11_1" index="1" speed="13.41" length="20.80" shape="1052.14,355.67,-6.26 1052.14,376.47,-6.26" />
    </edge>
    <edge id=":C_13" function="internal">
        <lane id=":C_13_0" index="0" speed="9.26" length="5.01" shape="1052.14,355.67,-6.26 1051.43,360.63,-6.26" />
    </edge>
    <edge id=":C_14" function="internal">
        <lane id=":C_14_0" index="0" speed="3.65" length="1.44" shape="1052.14,355.67,-6.26 1051.34,356.87,-6.26" />
    </edge>
    <edge id=":C_24" function="internal">
        <lane id=":C_24_0" index="0" speed="9.26" length="14.34" shape="1051.43,360.63,-6.26 1051.39,360.92,-6.26 1049.14,364.67,-6.26 1045.39,366.92,-6.26 1040.14,367.67,-6.26" />
    </edge>
    <edge id=":C_25" function="internal">
        <lane id=":C_25_0" index="0" speed="3.65" length="3.23" shape="1051.34,356.87,-6.26 1050.54,357.27,-6.26 1049.74,356.87,-6.26 1048.94,355.67,-6.26" />
    </edge>
    <edge id=":C_15" function="internal">
        <lane id=":C_15_0" index="0" speed="6.51" length="9.03" shape="1040.14,361.27,-6.26 1042.59,360.92,-6.26 1044.34,359.87,-6.26 1045.39,358.12,-6.26 1045.74,355.67,-6.26" />
    </edge>
    <edge id=":C_16" function="internal">
        <lane id=":C_16_0" index="0" speed="13.41" length="20.80" shape="1040.14,361.27,-6.26 1060.94,361.27,-6.26" />
        <lane id=":C_16_1" index="1" speed="13.41" length="20.80" shape="1040.14,364.47,-6.26 1060.94,364.47,-6.26" />
    </edge>
    <edge id=":C_18" function="internal">
        <lane id=":C_18_0" index="0" speed="9.26" length="5.01" shape="1040.14,364.47,-6.26 1045.10,365.18,-6.26" />
    </edge>
    <edge id=":C_19" function="internal">
        <lane id=":C_19_0" index="0" speed="3.65" length="1.44" shape="1040.14,364.47,-6.26 1041.34,365.27,-6.26" />
    </edge>
    <edge id=":C_26" function="internal">
        <lane id=":C_26_0" index="0" speed="9.26" length="14.34" shape="1045.10,365.18,-6.26 1045.39,365.22,-6.26 1049.14,367.47,-6.26 1051.39,371.22,-6.26 1052.14,376.47,-6.26" />
    </edge>
    <edge id=":C_27" function="internal">
        <lane id=":C_27_0" index="0" speed="3.65" length="3.23" shape="1041.34,365.27,-6.26 1041.74,366.07,-6.26 1041.34,366.87,-6.26 1040.14,367.67,-6.26" />
    </edge>
    <edge id=":CA_0" function="internal">
        <lane id=":CA_0_0" index="0" speed="3.65" length="4.67" shape="1209.74,364.47,-6.26 1210.94,365.27,-6.26 1211.34,366.07,-6.26 1210.94,366.87,-6.26 1209.74,367.67,-6.26" />
    </edge>
    <edge id=":CB_0" function="internal">
        <lane id=":CB_0_0" index="0" speed="3.65" length="4.67" shape="1048.94,206.87,-6.26 1049.74,205.67,-6.26 1050.54,205.27,-6.26 1051.34,205.67,-6.26 1052.14,206.87,-6.26" />
    </edge>
    <edge id=":CC_0" function="internal">
        <lane id=":CC_0_0" index="0" speed="3.65" length="4.67" shape="891.34,367.67,-6.26 890.14,366.87,-6.26 889.74,366.07,-6.26 890.14,365.27,-6.26 891.34,364.47,-6.26" />
    </edge>
    <edge id=":D_0" function="internal">
        <lane id=":D_0_0" index="0" speed="6.51" length="9.03" shape="517.27,535.67,1.28 516.92,533.22,1.28 515.87,531.47,1.28 514.12,530.42,1.28 511.67,530.07,1.28" />
    </edge>
    <edge id=":D_1" function="internal">
        <lane id=":D_1_0" index="0" speed="13.41" length="24.27" shape="517.27,535.67,1.28 517.77,528.22,1.28 518.87,522.88,1.28 519.97,517.93,1.28 520.47,511.67,1.28" />
        <lane id=":D_1_1" index="1" speed="13.41" length="24.27" shape="520.47,535.67,1.28 520.97,528.22,1.28 522.07,522.88,1.28 523.17,517.93,1.28 523.67,511.67,1.28" />
    </edge>
    <edge id=":D_3" function="internal">
        <lane id=":D_3_0" index="0" speed="9.84" length="5.46" shape="523.67,535.67,1.28 524.62,530.42,1.27 524.70,530.32,1.27" />
    </edge>
    <edge id=":D_4" function="internal">
        <lane id=":D_4_0" index="0" speed="3.65" length="1.44" shape="523.67,535.67,1.28 524.47,534.47,1.28" />
    </edge>
    <edge id=":D_21" function="internal">
        <lane id=":D_21_0" index="0" speed="9.84" length="16.53" shape="524.70,530.32,1.27 527.47,526.67,1.27 532.22,524.42,1.26 538.87,523.67,1.25" />
    </edge>
    <edge id=":D_22" function="internal">
        <lane id=":D_22_0" index="0" speed="3.65" length="3.23" shape="524.47,534.47,1.28 525.27,534.07,1.28 526.07,534.47,1.28 526.87,535.67,1.28" />
    </edge>
    <edge id=":D_5" function="internal">
        <lane id=":D_5_0" index="0" speed="7.33" length="11.73" shape="538.87,530.07,1.25 535.02,530.42,1.26 532.27,531.47,1.27 530.62,533.22,1.27 530.07,535.67,1.28" />
    </edge>
    <edge id=":D_6" function="internal">
        <lane id=":D_6_0" index="0" speed="13.41" length="27.20" shape="538.87,530.07,1.25 511.67,530.07,1.28" />
        <lane id=":D_6_1" index="1" speed="13.41" length="27.20" shape="538.87,526.87,1.25 511.67,526.87,1.28" />
    </edge>
    <edge id=":D_8" function="internal">
        <lane id=":D_8_0" index="0" speed="10.36" length="5.01" shape="538.87,526.87,1.25 533.90,526.16,1.25" />
    </edge>
    <edge id=":D_9" function="internal">
        <lane id=":D_9_0" index="0" speed="3.65" length="1.44" shape="538.87,526.87,1.25 537.67,526.07,1.25" />
    </edge>
    <edge id=":D_23" function="internal">
        <lane id=":D_23_0" index="0" speed="10.36" length="19.50" shape="533.90,526.16,1.25 532.22,525.92,1.26 527.47,523.07,1.26 524.62,518.32,1.27 523.67,511.67,1.28" />
    </edge>
    <edge id=":D_24" function="internal">
        <lane id=":D_24_0" index="0" speed="3.65" length="3.23" shape="537.67,526.07,1.25 537.27,525.27,1.25 537.67,524.47,1.25 538.87,523.67,1.25" />
    </edge>
    <edge id=":D_10" function="internal">
        <lane id=":D_10_0" index="0" speed="6.51" length="9.03" shape="533.27,511.67,1.28 533.62,514.12,1.27 534.67,515.87,1.26 536.42,516.92,1.26 538.87,517.27,1.25" />
    </edge>
    <edge id=":D_11" function="internal">
        <lane id=":D_11_0" index="0" speed="13.41" length="24.27" shape="533.27,511.67,1.28 532.77,519.12,1.28 531.67,524.46,1.28 530.57,529.40,1.28 530.07,535.67,1.28" />
        <lane id=":D_11_1" index="1" speed="13.41" length="24.27" shape="530.07,511.67,1.28 529.57,519.12,1.28 528.47,524.46,1.28 527.37,529.40,1.28 526.87,535.67,1.28" />
    </edge>
    <edge id=":D_13" function="internal">
        <lane id=":D_13_0" index="0" speed="10.36" length="7.35" shape="526.87,511.67,1.28 525.92,518.32,1.28 525.59,518.86,1.28" />
    </edge>
    <edge id=":D_14" function="internal">
        <lane id=":D_14_0" index="0" speed="3.65" length="1.44" shape="526.87,511.67,1.28 526.07,512.87,1.28" />
    </edge>
    <edge id=":D_25" function="internal">
        <lane id=":D_25_0" index="0" speed="10.36" length="17.17" shape="525.59,518.86,1.28 523.07,523.07,1.28 518.32,525.92,1.28 511.67,526.87,1.28" />
    </edge>
    <edge id=":D_26" function="internal">
        <lane id=":D_26_0" index="0" speed="3.65" length="3.23" shape="526.07,512.87,1.28 525.27,513.27,1.28 524.47,512.87,1.28 523.67,511.67,1.28" />
    </edge>
    <edge id=":D_15" function="internal">
        <lane id=":D_15_0" index="0" speed="7.33" length="11.73" shape="511.67,517.27,1.28 515.52,516.92,1.28 518.27,515.87,1.28 519.92,514.12,1.28 520.47,511.67,1.28" />
    </edge>
    <edge id=":D_16" function="internal">
        <lane id=":D_16_0" index="0" speed="13.41" length="27.20" shape="511.67,517.27,1.28 538.87,517.27,1.25" />
        <lane id=":D_16_1" index="1" speed="13.41" length="27.20" shape="511.67,520.47,1.28 538.87,520.47,1.25" />
        <lane id=":D_16_2" index="2" speed="13.41" length="27.20" shape="511.67,523.67,1.28 538.87,523.67,1.25" />
    </edge>
    <edge id=":D_19" function="internal">
        <lane id=":D_19_0" index="0" speed="9.84" length="6.30" shape="511.67,523.67,1.28 517.93,524.37,1.28" />
    </edge>
    <edge id=":D_20" function="internal">
        <lane id=":D_20_0" index="0" speed="3.65" length="1.44" shape="511.67,523.67,1.28 512.87,524.47,1.28" />
    </edge>
    <edge id=":D_27" function="internal">
        <lane id=":D_27_0" index="0" speed="9.84" length="15.70" shape="517.93,524.37,1.28 518.32,524.42,1.28 523.07,526.67,1.28 525.92,530.42,1.28 526.87,535.67,1.28" />
    </edge>
    <edge id=":D_28" function="internal">
        <lane id=":D_28_0" index="0" speed="3.65" length="3.23" shape="512.87,524.47,1.28 513.27,525.27,1.28 512.87,526.07,1.28 511.67,526.87,1.28" />
    </edge>
    <edge id=":DA_0" function="internal">
        <lane id=":DA_0_0" index="0" speed="3.65" length="4.67" shape="523.67,0.00,1.28 524.47,-1.20,1.28 525.27,-1.60,1.28 526.07,-1.20,1.28 526.87,0.00,1.28" />
    </edge>
    <edge id=":DB_0" function="internal">
        <lane id=":DB_0_0" index="0" speed="3.65" length="4.67" shape="0.00,526.87,1.28 -1.20,526.07,1.28 -1.60,525.27,1.28 -1.20,524.47,1.28 0.00,523.67,1.28" />
    </edge>
    <edge id=":DC_0" function="internal">
        <lane id=":DC_0_0" index="0" speed="3.65" length="4.67" shape="526.87,1050.54,1.28 526.07,1051.74,1.28 525.27,1052.14,1.28 524.47,1051.74,1.28 523.67,1050.54,1.28" />
    </edge>
    <edge id=":TL_0" function="internal">
        <lane id=":TL_0_0" index="0" speed="7.33" length="11.73" shape="1039.34,538.87 1038.99,535.02,0.01 1037.94,532.27,0.02 1036.19,530.62,0.03 1033.74,530.07,0.04" />
    </edge>
    <edge id=":TL_1" function="internal">
        <lane id=":TL_1_0" index="0" speed="13.41" length="28.12" shape="1039.34,538.87 1040.34,530.13 1042.54,523.78 1044.74,518.17 1045.74,511.67" />
        <lane id=":TL_1_1" index="1" speed="13.41" length="28.12" shape="1042.54,538.87 1043.54,530.13 1045.74,523.78 1047.94,518.17 1048.94,511.67" />
    </edge>
    <edge id=":TL_3" function="internal">
        <lane id=":TL_3_0" index="0" speed="11.36" length="15.77" shape="1045.74,538.87 1046.89,530.82,0.00 1050.34,525.07,0.00 1051.14,524.59,0.00" />
        <lane id=":TL_3_1" index="1" speed="10.36" length="10.84" shape="1048.94,538.87 1049.89,532.22,0.00 1052.01,528.68,0.00" />
    </edge>
    <edge id=":TL_18" function="internal">
        <lane id=":TL_18_0" index="0" speed="11.36" length="13.91" shape="1051.14,524.59,0.00 1056.09,521.62,0.01 1064.14,520.47,0.01" />
    </edge>
    <edge id=":TL_19" function="internal">
        <lane id=":TL_19_0" index="0" speed="10.36" length="13.67" shape="1052.01,528.68,0.00 1052.74,527.47,0.00 1057.49,524.62,0.01 1064.14,523.67,0.01" />
    </edge>
    <edge id=":TL_5" function="internal">
        <lane id=":TL_5_0" index="0" speed="6.51" length="9.03" shape="1064.14,533.27,0.01 1061.69,533.62,0.01 1059.94,534.67,0.00 1058.89,536.42,0.00 1058.54,538.87" />
    </edge>
    <edge id=":TL_6" function="internal">
        <lane id=":TL_6_0" index="0" speed="14.53" length="30.54" shape="1064.14,533.27,0.01 1054.46,532.77,0.02 1047.06,531.67,0.03 1040.60,530.57,0.03 1033.74,530.07,0.04" />
        <lane id=":TL_6_1" index="1" speed="14.53" length="30.54" shape="1064.14,530.07,0.01 1054.46,529.57,0.02 1047.06,528.47,0.03 1040.60,527.37,0.03 1033.74,526.87,0.04" />
        <lane id=":TL_6_2" index="2" speed="14.53" length="30.54" shape="1064.14,526.87,0.01 1033.74,526.87,0.04" />
    </edge>
    <edge id=":TL_9" function="internal">
        <lane id=":TL_9_0" index="0" speed="10.36" length="12.07" shape="1064.14,526.87,0.01 1057.49,525.92,0.01 1052.90,523.16,0.00" />
    </edge>
    <edge id=":TL_20" function="internal">
        <lane id=":TL_20_0" index="0" speed="10.36" length="12.44" shape="1052.90,523.16,0.00 1052.74,523.07,0.00 1049.89,518.32,0.00 1048.94,511.67" />
    </edge>
    <edge id=":TL_10" function="internal">
        <lane id=":TL_10_0" index="0" speed="7.33" length="11.73" shape="1055.34,511.67 1055.89,514.12,0.00 1057.54,515.87,0.00 1060.29,516.92,0.01 1064.14,517.27,0.01" />
    </edge>
    <edge id=":TL_11" function="internal">
        <lane id=":TL_11_0" index="0" speed="13.41" length="27.43" shape="1055.34,511.67 1055.84,518.21 1056.94,523.88 1058.04,530.25 1058.54,538.87" />
        <lane id=":TL_11_1" index="1" speed="13.41" length="27.43" shape="1052.14,511.67 1052.64,518.21 1053.74,523.88 1054.84,530.25 1055.34,538.87" />
    </edge>
    <edge id=":TL_13" function="internal">
        <lane id=":TL_13_0" index="0" speed="10.88" length="8.01" shape="1052.14,511.67 1050.99,518.32,0.01 1050.25,519.34,0.01" />
    </edge>
    <edge id=":TL_21" function="internal">
        <lane id=":TL_21_0" index="0" speed="10.88" length="19.14" shape="1050.25,519.34,0.01 1047.54,523.07,0.02 1041.79,525.92,0.03 1033.74,526.87,0.04" />
    </edge>
    <edge id=":TL_14" function="internal">
        <lane id=":TL_14_0" index="0" speed="8.10" length="14.57" shape="1033.74,517.27,0.04 1038.99,516.92,0.03 1042.74,515.87,0.02 1044.99,514.12,0.01 1045.74,511.67" />
    </edge>
    <edge id=":TL_15" function="internal">
        <lane id=":TL_15_0" index="0" speed="14.53" length="30.40" shape="1033.74,517.27,0.04 1064.14,517.27,0.01" />
        <lane id=":TL_15_1" index="1" speed="14.53" length="30.40" shape="1033.74,520.47,0.04 1064.14,520.47,0.01" />
    </edge>
    <edge id=":TL_17" function="internal">
        <lane id=":TL_17_0" index="0" speed="10.88" length="6.03" shape="1033.74,523.67,0.04 1039.72,524.37,0.03" />
    </edge>
    <edge id=":TL_22" function="internal">
        <lane id=":TL_22_0" index="0" speed="10.88" length="21.12" shape="1039.72,524.37,0.03 1041.79,524.62,0.03 1047.54,527.47,0.02 1050.99,532.22,0.01 1052.14,538.87" />
    </edge>

    <edge id="A2AA" from="A" to="AA" priority="-1">