<net xmlns:xsi="http://www.w3.org/2001/XMLSchema-instance" version="1.9" junctionCornerDetail="5" limitTurnSpeed="5.50" xsi:noNamespaceSchemaLocation="http://sumo.dlr.de/xsd/net_file.xsd">

    <location netOffset="831.89,662.14" convBoundary="0.00,0.00,1272.32,1078.09" origBoundary="-831.89,-662.14,440.43,415.95" projParameter="!" />

    <edge id=":A_0" function="internal">
        <lane id=":A_0_0" index="0" speed="7.33" length="11.73" shape="820.69,728.94,-0.21 820.34,725.09,-0.21 819.29,722.34,-0.21 817.54,720.69,-0.21 815.09,720.14,-0.21" />
    </edge>
    <edge id=":A_1" function="internal">
        <lane id=":A_1_0" index="0" speed="17.88" length="33.60" shape="820.69,728.94,-0.21 820.69,695.34,-0.21" />
        <lane id=":A_1_1" index="1" speed="17.88" length="33.60" shape="823.89,728.94,-0.21 823.89,695.34,-0.21" />
        <lane id=":A_1_2" index="2" speed="17.88" length="33.60" shape="827.09,728.94,-0.21 827.09,695.34,-0.21" />
        <lane id=":A_1_3" index="3" speed="17.88" length="33.60" shape="830.29,728.94,-0.21 830.29,695.34,-0.21" />
    </edge>
    <edge id=":A_5" function="internal">
        <lane id=":A_5_0" index="0" speed="10.88" length="6.03" shape="830.29,728.94,-0.21 831.00,722.95,-0.22" />
    </edge>
    <edge id=":A_6" function="internal">
        <lane id=":A_6_0" index="0" speed="3.65" length="1.44" shape="830.29,728.94,-0.21 831.09,727.74,-0.21" />
    </edge>
    <edge id=":A_25" function="internal">
        <lane id=":A_25_0" index="0" speed="10.88" length="21.12" shape="831.00,722.95,-0.22 831.24,720.89,-0.22 834.09,715.14,-0.22 838.84,711.69,-0.23 845.49,710.54,-0.23" />
    </edge>
    <edge id=":A_26" function="internal">
        <lane id=":A_26_0" index="0" speed="3.65" length="3.23" shape="831.09,727.74,-0.21 831.89,727.34,-0.21 832.69,727.74,-0.21 833.49,728.94,-0.21" />
    </edge>
    <edge id=":A_7" function="internal">
        <lane id=":A_7_0" index="0" speed="6.51" length="9.03" shape="845.49,723.34,-0.23 843.04,723.69,-0.23 841.29,724.74,-0.22 840.24,726.49,-0.22 839.89,728.94,-0.21" />
    </edge>
    <edge id=":A_8" function="internal">
        <lane id=":A_8_0" index="0" speed="17.88" length="30.62" shape="845.49,723.34,-0.23 836.41,722.84,-0.23 830.19,721.74,-0.22 824.02,720.64,-0.22 815.09,720.14,-0.21" />
        <lane id=":A_8_1" index="1" speed="17.88" length="30.62" shape="845.49,720.14,-0.23 836.41,719.64,-0.23 830.19,718.54,-0.22 824.02,717.44,-0.22 815.09,716.94,-0.21" />
        <lane id=":A_8_2" index="2" speed="17.88" length="30.62" shape="845.49,716.94,-0.23 836.41,716.44,-0.23 830.19,715.34,-0.22 824.02,714.24,-0.22 815.09,713.74,-0.21" />
    </edge>
    <edge id=":A_11" function="internal">
        <lane id=":A_11_0" index="0" speed="10.88" length="6.09" shape="845.49,713.74,-0.23 839.49,712.70,-0.23" />
    </edge>
    <edge id=":A_12" function="internal">
        <lane id=":A_12_0" index="0" speed="3.65" length="1.44" shape="845.49,713.74,-0.23 844.29,712.94,-0.23" />
    </edge>
    <edge id=":A_27" function="internal">
        <lane id=":A_27_0" index="0" speed="10.88" length="21.05" shape="839.49,712.70,-0.23 838.84,712.59,-0.23 834.09,709.14,-0.22 831.24,703.39,-0.22 830.29,695.34,-0.21" />
    </edge>
    <edge id=":A_28" function="internal">
        <lane id=":A_28_0" index="0" speed="3.65" length="3.23" shape="844.29,712.94,-0.23 843.89,712.14,-0.23 844.29,711.34,-0.23 845.49,710.54,-0.23" />
    </edge>
    <edge id=":A_13" function="internal">
        <lane id=":A_13_0" index="0" speed="7.33" length="11.73" shape="839.89,695.34,-0.21 840.24,699.19,-0.22 841.29,701.94,-0.22 843.04,703.59,-0.23 845.49,704.14,-0.23" />
    </edge>
    <edge id=":A_14" function="internal">
        <lane id=":A_14_0" index="0" speed="17.88" length="33.60" shape="839.89,695.34,-0.21 839.89,728.94,-0.21" />
        <lane id=":A_14_1" index="1" speed="17.88" length="33.60" shape="836.69,695.34,-0.21 836.69,728.94,-0.21" />
        <lane id=":A_14_2" index="2" speed="17.88" length="33.60" shape="833.49,695.34,-0.21 833.49,728.94,-0.21" />
    </edge>
    <edge id=":A_17" function="internal">
        <lane id=":A_17_0" index="0" speed="11.36" length="5.01" shape="833.49,695.34,-0.21 832.79,700.30,-0.21" />
    </edge>
    <edge id=":A_18" function="internal">
        <lane id=":A_18_0" index="0" speed="3.65" length="1.44" shape="833.49,695.34,-0.21 832.69,696.54,-0.21" />
    </edge>
    <edge id=":A_29" function="internal">
        <lane id=":A_29_0" index="0" speed="11.36" length="24.66" shape="832.79,700.30,-0.21 832.34,703.39,-0.21 828.89,709.14,-0.21 823.14,712.59,-0.21 815.09,713.74,-0.21" />
    </edge>
    <edge id=":A_30" function="internal">
        <lane id=":A_30_0" index="0" speed="3.65" length="3.23" shape="832.69,696.54,-0.21 831.89,696.94,-0.21 831.09,696.54,-0.21 830.29,695.34,-0.21" />
    </edge>
    <edge id=":A_19" function="internal">
        <lane id=":A_19_0" index="0" speed="6.51" length="9.03" shape="815.09,700.94,-0.21 817.54,700.59,-0.21 819.29,699.54,-0.21 820.34,697.79,-0.21 820.69,695.34,-0.21" />
    </edge>
    <edge id=":A_20" function="internal">
        <lane id=":A_20_0" index="0" speed="17.88" length="30.62" shape="815.09,700.94,-0.21 824.18,701.44,-0.22 830.40,702.54,-0.22 836.57,703.64,-0.23 845.49,704.14,-0.23" />
        <lane id=":A_20_1" index="1" speed="17.88" length="30.62" shape="815.09,704.14,-0.21 824.18,704.64,-0.22 830.40,705.74,-0.22 836.57,706.84,-0.23 845.49,707.34,-0.23" />
        <lane id=":A_20_2" index="2" speed="17.88" length="30.62" shape="815.09,707.34,-0.21 824.18,707.84,-0.22 830.40,708.94,-0.22 836.57,710.04,-0.23 845.49,710.54,-0.23" />
    </edge>
    <edge id=":A_23" function="internal">
        <lane id=":A_23_0" index="0" speed="11.36" length="7.98" shape="815.09,710.54,-0.21 823.00,711.67,-0.21" />
    </edge>
    <edge id=":A_24" function="internal">
        <lane id=":A_24_0" index="0" speed="3.65" length="1.44" shape="815.09,710.54,-0.21 816.29,711.34,-0.21" />
    </edge>
    <edge id=":A_31" function="internal">
        <lane id=":A_31_0" index="0" speed="11.36" length="21.69" shape="823.00,711.67,-0.21 823.14,711.69,-0.21 828.89,715.14,-0.21 832.34,720.89,-0.21 833.49,728.94,-0.21" />
    </edge>
    <edge id=":A_32" function="internal">
        <lane id=":A_32_0" index="0" speed="3.65" length="3.23" shape="816.29,711.34,-0.21 816.69,712.14,-0.21 816.29,712.94,-0.21 815.09,713.74,-0.21" />
    </edge>
    <edge id=":AA_0" function="internal">
        <lane id=":AA_0_0" index="0" speed="3.65" length="4.67" shape="806.99,713.74,-0.16 805.79,712.94,-0.16 805.39,712.14,-0.16 805.79,711.34,-0.16 806.99,710.54,-0.16" />
    </edge>
    <edge id=":AB_0" function="internal">
        <lane id=":AB_0_0" index="0" speed="3.65" length="4.67" shape="833.49,737.04,-0.16 832.69,738.24,-0.16 831.89,738.64,-0.16 831.09,738.24,-0.16 830.29,737.04,-0.16" />
    </edge>
    <edge id=":AC_0" function="internal">
        <lane id=":AC_0_0" index="0" speed="3.65" length="4.67" shape="856.80,710.54,-0.16 858.00,711.34,-0.16 858.40,712.14,-0.16 858.00,712.94,-0.16 856.80,713.74,-0.16" />
    </edge>
    <edge id=":B_0" function="internal">
        <lane id=":B_0_0" index="0" speed="6.51" length="9.03" shape="1038.51,654.14,0.25 1040.96,653.79,0.26 1042.71,652.74,0.26 1043.76,650.99,0.26 1044.11,648.54,0.27" />
        <lane id=":B_0_1" index="1" speed="7.33" length="11.73" shape="1038.51,654.14,0.25 1042.36,653.79,0.26 1045.11,652.74,0.26 1046.76,650.99,0.26 1047.31,648.54,0.27" />
        <lane id=":B_0_2" index="2" speed="8.10" length="14.57" shape="1038.51,654.14,0.25 1043.76,653.79,0.26 1047.51,652.74,0.26 1049.76,650.99,0.27 1050.51,648.54,0.27" />
    </edge>
    <edge id=":B_3" function="internal">
        <lane id=":B_3_0" index="0" speed="20.12" length="27.20" shape="1038.51,654.14,0.25 1065.71,654.14,0.27" />
        <lane id=":B_3_1" index="1" speed="20.12" length="27.20" shape="1038.51,657.34,0.25 1065.71,657.34,0.27" />
        <lane id=":B_3_2" index="2" speed="20.12" length="27.20" shape="1038.51,660.54,0.25 1065.71,660.54,0.27" />
    </edge>
    <edge id=":B_6" function="internal">
        <lane id=":B_6_0" index="0" speed="10.16" length="23.50" shape="1038.51,660.54,0.25 1047.96,660.89,0.26 1054.71,661.94,0.26 1058.76,663.69,0.27 1060.11,666.14,0.27" />
        <lane id=":B_6_1" index="1" speed="9.51" length="20.48" shape="1038.51,660.54,0.25 1046.56,660.89,0.26 1052.31,661.94,0.26 1055.76,663.69,0.27 1056.91,666.14,0.27" />
        <lane id=":B_6_2" index="2" speed="8.83" length="17.50" shape="1038.51,660.54,0.25 1045.16,660.89,0.26 1049.91,661.94,0.26 1052.76,663.69,0.27 1053.71,666.14,0.27" />
    </edge>
    <edge id=":C_0" function="internal">
        <lane id=":C_0_0" index="0" speed="8.10" length="14.57" shape="827.09,347.87,-0.48 826.74,342.62,-0.49 825.69,338.87,-0.50 823.94,336.62,-0.50 821.49,335.87,-0.50" />
    </edge>
    <edge id=":C_1" function="internal">
        <lane id=":C_1_0" index="0" speed="13.41" length="33.60" shape="827.09,347.87,-0.48 827.09,314.27,-0.50" />
        <lane id=":C_1_1" index="1" speed="13.41" length="33.60" shape="830.29,347.87,-0.48 830.29,314.27,-0.50" />
    </edge>
    <edge id=":C_3" function="internal">
        <lane id=":C_3_0" index="0" speed="11.36" length="5.01" shape="830.29,347.87,-0.48 831.00,342.91,-0.48" />
    </edge>
    <edge id=":C_4" function="internal">
        <lane id=":C_4_0" index="0" speed="3.65" length="1.44" shape="830.29,347.87,-0.48 831.09,346.67,-0.48" />
    </edge>
    <edge id=":C_22" function="internal">
        <lane id=":C_22_0" index="0" speed="11.36" length="24.66" shape="831.00,342.91,-0.48 831.44,339.82,-0.49 834.89,334.07,-0.49 840.64,330.62,-0.50 848.69,329.47,-0.50" />
    </edge>
    <edge id=":C_23" function="internal">
        <lane id=":C_23_0" index="0" speed="3.65" length="3.23" shape="831.09,346.67,-0.48 831.89,346.27,-0.48 832.69,346.67,-0.48 833.49,347.87,-0.48" />
    </edge>
    <edge id=":C_5" function="internal">
        <lane id=":C_5_0" index="0" speed="6.51" length="9.03" shape="848.69,342.27,-0.50 846.24,342.62,-0.50 844.49,343.67,-0.49 843.44,345.42,-0.49 843.09,347.87,-0.48" />
    </edge>
    <edge id=":C_6" function="internal">
        <lane id=":C_6_0" index="0" speed="13.41" length="27.43" shape="848.69,339.07,-0.50 840.07,338.57,-0.50 833.71,337.47,-0.50 828.04,336.37,-0.50 821.49,335.87,-0.50" />
        <lane id=":C_6_1" index="1" speed="13.41" length="27.43" shape="848.69,335.87,-0.50 840.07,335.37,-0.50 833.71,334.27,-0.50 828.04,333.17,-0.50 821.49,332.67,-0.50" />
    </edge>
    <edge id=":C_8" function="internal">
        <lane id=":C_8_0" index="0" speed="11.36" length="8.78" shape="848.69,332.67,-0.50 840.64,331.52,-0.50 840.09,331.19,-0.50" />
    </edge>
    <edge id=":C_9" function="internal">
        <lane id=":C_9_0" index="0" speed="3.65" length="1.44" shape="848.69,332.67,-0.50 847.49,331.87,-0.50" />
    </edge>
    <edge id=":C_24" function="internal">
        <lane id=":C_24_0" index="0" speed="11.36" length="20.90" shape="840.09,331.19,-0.50 834.89,328.07,-0.50 831.44,322.32,-0.50 830.29,314.27,-0.50" />
    </edge>
    <edge id=":C_25" function="internal">
        <lane id=":C_25_0" index="0" speed="3.65" length="3.23" shape="847.49,331.87,-0.50 847.09,331.07,-0.50 847.49,330.27,-0.50 848.69,329.47,-0.50" />
    </edge>
    <edge id=":C_10" function="internal">
        <lane id=":C_10_0" index="0" speed="8.10" length="14.57" shape="843.09,314.27,-0.50 843.44,319.52,-0.50 844.49,323.27,-0.50 846.24,325.52,-0.50 848.69,326.27,-0.50" />
    </edge>
    <edge id=":C_11" function="internal">
        <lane id=":C_11_0" index="0" speed="13.41" length="33.60" shape="843.09,314.27,-0.50 843.09,347.87,-0.48" />
        <lane id=":C_11_1" index="1" speed="13.41" length="33.60" shape="839.89,314.27,-0.50 839.89,347.87,-0.48" />
        <lane id=":C_11_2" index="2" speed="13.41" length="33.60" shape="836.69,314.27,-0.50 836.69,347.87,-0.48" />
        <lane id=":C_11_3" index="3" speed="13.41" length="33.60" shape="833.49,314.27,-0.50 833.49,347.87,-0.48" />
    </edge>
    <edge id=":C_15" function="internal">
        <lane id=":C_15_0" index="0" speed="10.41" length="7.59" shape="833.49,314.27,-0.50 832.79,321.82,-0.50" />
    </edge>
    <edge id=":C_16" function="internal">
        <lane id=":C_16_0" index="0" speed="3.65" length="1.44" shape="833.49,314.27,-0.50 832.69,315.47,-0.50" />
    </edge>
    <edge id=":C_26" function="internal">
        <lane id=":C_26_0" index="0" speed="10.41" length="17.14" shape="832.79,321.82,-0.50 832.74,322.32,-0.50 830.49,328.07,-0.50 826.74,331.52,-0.50 821.49,332.67,-0.50" />
    </edge>
    <edge id=":C_27" function="internal">
        <lane id=":C_27_0" index="0" speed="3.65" length="3.23" shape="832.69,315.47,-0.50 831.89,315.87,-0.50 831.09,315.47,-0.50 830.29,314.27,-0.50" />
    </edge>
    <edge id=":C_17" function="internal">
        <lane id=":C_17_0" index="0" speed="6.51" length="9.03" shape="821.49,319.87,-0.50 823.94,319.52,-0.50 825.69,318.47,-0.50 826.74,316.72,-0.50 827.09,314.27,-0.50" />
    </edge>
    <edge id=":C_18" function="internal">
        <lane id=":C_18_0" index="0" speed="13.41" length="27.43" shape="821.49,323.07,-0.50 830.12,323.57,-0.50 836.48,324.67,-0.50 842.15,325.77,-0.50 848.69,326.27,-0.50" />
        <lane id=":C_18_1" index="1" speed="13.41" length="27.43" shape="821.49,326.27,-0.50 830.12,326.77,-0.50 836.48,327.87,-0.50 842.15,328.97,-0.50 848.69,329.47,-0.50" />
    </edge>
    <edge id=":C_20" function="internal">
        <lane id=":C_20_0" index="0" speed="10.41" length="5.03" shape="821.49,329.47,-0.50 826.41,330.55,-0.50" />
    </edge>
    <edge id=":C_21" function="internal">
        <lane id=":C_21_0" index="0" speed="3.65" length="1.44" shape="821.49,329.47,-0.50 822.69,330.27,-0.50" />
    </edge>
    <edge id=":C_28" function="internal">
        <lane id=":C_28_0" index="0" speed="10.41" length="19.69" shape="826.41,330.55,-0.50 826.74,330.62,-0.50 830.49,334.07,-0.49 832.74,339.82,-0.49 833.49,347.87,-0.48" />
    </edge>
    <edge id=":C_29" function="internal">
        <lane id=":C_29_0" index="0" speed="3.65" length="3.23" shape="822.69,330.27,-0.50 823.09,331.07,-0.50 822.69,331.87,-0.50 821.49,332.67,-0.50" />
    </edge>
    <edge id=":CA_0" function="internal">
        <lane id=":CA_0_0" index="0" speed="3.65" length="4.67" shape="1162.96,329.47,-0.50 1164.16,330.27,-0.50 1164.56,331.07,-0.50 1164.16,331.87,-0.50 1162.96,332.67,-0.50" />
    </edge>
    <edge id=":CB_0" function="internal">
        <lane id=":CB_0_0" index="0" speed="3.65" length="4.67" shape="830.29,-0.00,-0.50 831.09,-1.20,-0.50 831.89,-1.60,-0.50 832.69,-1.20,-0.50 833.49,-0.00,-0.50" />
    </edge>
    <edge id=":CC_0" function="internal">
        <lane id=":CC_0_0" index="0" speed="3.65" length="4.67" shape="500.83,332.67,-0.50 499.63,331.87,-0.50 499.23,331.07,-0.50 499.63,330.27,-0.50 500.83,329.47,-0.50" />
    </edge>
    <edge id=":D_0" function="internal">
        <lane id=":D_0_0" index="0" speed="13.66" length="43.36" shape="401.55,666.14,-1.27 403.70,658.09,-1.26 410.15,652.34,-1.24 420.90,648.89,-1.23 435.95,647.74,-1.21" />
        <lane id=":D_0_1" index="1" speed="12.86" length="38.31" shape="404.75,666.14,-1.27 406.70,659.49,-1.26 412.55,654.74,-1.24 422.30,651.89,-1.23 435.95,650.94,-1.21" />
        <lane id=":D_0_2" index="2" speed="12.01" length="33.29" shape="407.95,666.14,-1.27 409.70,660.89,-1.26 414.95,657.14,-1.25 423.70,654.89,-1.23 435.95,654.14,-1.21" />
        <lane id=":D_0_3" index="3" speed="11.11" length="28.34" shape="411.15,666.14,-1.27 412.70,662.29,-1.26 417.35,659.54,-1.25 425.10,657.89,-1.23 435.95,657.34,-1.21" />
        <lane id=":D_0_4" index="4" speed="10.16" length="23.50" shape="414.35,666.14,-1.27 415.70,663.69,-1.26 419.75,661.94,-1.25 426.50,660.89,-1.23 435.95,660.54,-1.21" />
    </edge>
    <edge id=":D_5" function="internal">
        <lane id=":D_5_0" index="0" speed="6.51" length="9.03" shape="430.35,642.14,-1.27 430.70,644.59,-1.25 431.75,646.34,-1.24 433.50,647.39,-1.22 435.95,647.74,-1.21" />
        <lane id=":D_5_1" index="1" speed="8.00" length="14.19" shape="427.15,642.14,-1.27 427.70,645.99,-1.25 429.35,648.74,-1.24 432.10,650.39,-1.22 435.95,650.94,-1.21" />
        <lane id=":D_5_2" index="2" speed="9.26" length="19.35" shape="423.95,642.14,-1.27 424.70,647.39,-1.25 426.95,651.14,-1.24 430.70,653.39,-1.22 435.95,654.14,-1.21" />
        <lane id=":D_5_3" index="3" speed="10.36" length="24.51" shape="420.75,642.14,-1.27 421.70,648.79,-1.25 424.55,653.54,-1.24 429.30,656.39,-1.22 435.95,657.34,-1.21" />
        <lane id=":D_5_4" index="4" speed="11.36" length="29.67" shape="417.55,642.14,-1.27 418.70,650.19,-1.25 422.15,655.94,-1.24 427.90,659.39,-1.22 435.95,660.54,-1.21" />
    </edge>
    <edge id=":D_10" function="internal">
        <lane id=":D_10_0" index="0" speed="20.12" length="40.00" shape="395.95,647.74,-1.27 435.95,647.74,-1.21" />
        <lane id=":D_10_1" index="1" speed="20.12" length="40.00" shape="395.95,650.94,-1.27 435.95,650.94,-1.21" />
        <lane id=":D_10_2" index="2" speed="20.12" length="40.00" shape="395.95,654.14,-1.27 435.95,654.14,-1.21" />
        <lane id=":D_10_3" index="3" speed="20.12" length="40.00" shape="395.95,657.34,-1.27 435.95,657.34,-1.21" />
        <lane id=":D_10_4" index="4" speed="20.12" length="40.00" shape="395.95,660.54,-1.27 435.95,660.54,-1.21" />
    </edge>
    <edge id=":TL_0" function="internal">
        <lane id=":TL_0_0" index="0" speed="15.65" length="25.06" shape="820.69,666.14,-0.03 821.69,658.56,-0.03 823.89,653.23,-0.03 826.09,648.36,-0.03 827.09,642.14,-0.03" />
        <lane id=":TL_0_1" index="1" speed="15.65" length="25.06" shape="823.89,666.14,-0.03 824.89,658.56,-0.03 827.09,653.23,-0.03 829.29,648.36,-0.03 830.29,642.14,-0.03" />
    </edge>
    <edge id=":TL_2" function="internal">
        <lane id=":TL_2_0" index="0" speed="10.16" length="5.78" shape="827.09,666.14,-0.03 828.44,663.69,-0.02 831.18,662.51,-0.01" />
    </edge>
    <edge id=":TL_3" function="internal">
        <lane id=":TL_3_0" index="0" speed="3.65" length="1.44" shape="830.29,666.14,-0.03 831.09,664.94,-0.03" />
    </edge>
    <edge id=":TL_15" function="internal">
        <lane id=":TL_15_0" index="0" speed="10.16" length="17.72" shape="831.18,662.51,-0.01 832.49,661.94,-0.01 839.24,660.89,0.00 848.69,660.54,0.02" />
    </edge>
    <edge id=":TL_16" function="internal">
        <lane id=":TL_16_0" index="0" speed="3.65" length="3.23" shape="831.09,664.94,-0.03 831.89,664.54,-0.03 832.69,664.94,-0.03 833.49,666.14,-0.03" />
    </edge>
    <edge id=":TL_4" function="internal">
        <lane id=":TL_4_0" index="0" speed="8.10" length="14.57" shape="843.09,642.14,-0.03 843.44,647.39,-0.01 844.49,651.14,0.00 846.24,653.39,0.01 848.69,654.14,0.02" />
    </edge>
    <edge id=":TL_5" function="internal">
        <lane id=":TL_5_0" index="0" speed="15.65" length="24.28" shape="843.09,642.14,-0.03 842.59,649.29,-0.03 841.49,654.14,-0.03 840.39,658.98,-0.03 839.89,666.14,-0.03" />
        <lane id=":TL_5_1" index="1" speed="15.65" length="24.28" shape="839.89,642.14,-0.03 839.39,649.29,-0.03 838.29,654.14,-0.03 837.19,658.98,-0.03 836.69,666.14,-0.03" />
        <lane id=":TL_5_2" index="2" speed="15.65" length="24.28" shape="836.69,642.14,-0.03 836.19,649.29,-0.03 835.09,654.14,-0.03 833.99,658.98,-0.03 833.49,666.14,-0.03" />
    </edge>
    <edge id=":TL_8" function="internal">
        <lane id=":TL_8_0" index="0" speed="3.65" length="1.44" shape="833.49,642.14,-0.03 832.69,643.34,-0.03" />
    </edge>
    <edge id=":TL_17" function="internal">
        <lane id=":TL_17_0" index="0" speed="3.65" length="3.23" shape="832.69,643.34,-0.03 831.89,643.74,-0.03 831.09,643.34,-0.03 830.29,642.14,-0.03" />
    </edge>
    <edge id=":TL_9" function="internal">
        <lane id=":TL_9_0" index="0" speed="8.10" length="14.57" shape="815.09,647.74,-0.05 820.34,647.39,-0.04 824.09,646.34,-0.04 826.34,644.59,-0.03 827.09,642.14,-0.03" />
    </edge>
    <edge id=":TL_10" function="internal">
        <lane id=":TL_10_0" index="0" speed="20.12" length="33.80" shape="815.09,650.94,-0.05 825.35,651.44,-0.03 832.60,652.54,-0.01 839.49,653.64,0.00 848.69,654.14,0.02" />
        <lane id=":TL_10_1" index="1" speed="20.12" length="33.80" shape="815.09,654.14,-0.05 825.35,654.64,-0.03 832.60,655.74,-0.01 839.49,656.84,0.00 848.69,657.34,0.02" />
        <lane id=":TL_10_2" index="2" speed="20.12" length="33.80" shape="815.09,657.34,-0.05 825.35,657.84,-0.03 832.60,658.94,-0.01 839.49,660.04,0.00 848.69,660.54,0.02" />
    </edge>
    <edge id=":TL_13" function="internal">
        <lane id=":TL_13_0" index="0" speed="10.16" length="23.50" shape="815.09,660.54,-0.05 824.54,660.89,-0.04 831.29,661.94,-0.03 835.34,663.69,-0.03 836.69,666.14,-0.03" />
        <lane id=":TL_13_1" index="1" speed="9.51" length="20.48" shape="815.09,660.54,-0.05 823.14,660.89,-0.04 828.89,661.94,-0.03 832.34,663.69,-0.03 833.49,666.14,-0.03" />
    </edge>

    <edge id="A2AA" from="A" to="AA" priority="-1">
        <lane id="A2AA_0" index="0" speed="17.88" length="8.10" shape="815.09,720.14,-0.21 806.99,720.14,-0.16" />
        <lane id="A2AA_1" index="1" speed="17.88" length="8.10" shape="815.09,716.94,-0.21 806.99,716.94,-0.16" />
        <lane id="A2AA_2" index="2" speed="17.88" length="8.10" shape="815.09,713.74,-0.21 806.99,713.74,-0.16" />
    </edge>
    <edge id="A2AB" from="A" to="AB" priority="-1">
        <lane id="A2AB_0" index="0" speed="17.88" length="8.10" shape="839.89,728.94,-0.21 839.89,737.04,-0.16" />
        <lane id="A2AB_1" index="1" speed="17.88" length="8.10" shape="836.69,728.94,-0.21 836.69,737.04,-0.16" />
        <lane id="A2AB_2" index="2" speed="17.88" length="8.10" shape="833.49,728.94,-0.21 833.49,737.04,-0.16" />
    </edge>
    <edge id="A2AC" from="A" to="AC" priority="-1">
        <lane id="A2AC_0" index="0" speed="17.88" length="11.30" shape="845.49,704.14,-0.23 856.80,704.14,-0.16" />
        <lane id="A2AC_1" index="1" speed="17.88" length="11.30" shape="845.49,707.34,-0.23 856.80,707.34,-0.16" />
        <lane id="A2AC_2" index="2" speed="17.88" length="11.30" shape="845.49,710.54,-0.23 856.80,710.54,-0.16" />
    </edge>
    <edge id="A2TL" from="A" to="TL" priority="-1">
        <lane id="A2TL_0" index="0" speed="17.88" length="29.20" shape="820.69,695.34,-0.21 820.69,666.14,-0.03" />
        <lane id="A2TL_1" index="1" speed="17.88" length="29.20" shape="823.89,695.34,-0.21 823.89,666.14,-0.03" />
        <lane id="A2TL_2" index="2" speed="17.88" length="29.20" shape="827.09,695.34,-0.21 827.09,666.14,-0.03" />
        <lane id="A2TL_3" index="3" speed="17.88" length="29.20" shape="830.29,695.34,-0.21 830.29,666.14,-0.03" />
    </edge>
    <edge id="AA2A" from="AA" to="A" priority="-1">
        <lane id="AA2A_0" index="0" speed="17.88" length="8.10" shape="806.99,700.94,-0.16 815.09,700.94,-0.21" />
        <lane id="AA2A_1" index="1" speed="17.88" length="8.10" shape="806.99,704.14,-0.16 815.09,704.14,-0.21" />
        <lane id="AA2A_2" index="2" speed="17.88" length="8.10" shape="806.99,707.34,-0.16 815.09,707.34,-0.21" />
        <lane id="AA2A_3" index="3" speed="17.88" length="8.10" shape="806.99,710.54,-0.16 815.09,710.54,-0.21" />
    </edge>
    <edge id="AB2A" from="AB" to="A" priority="-1">
        <lane id="AB2A_0" index="0" speed="17.88" length="8.10" shape="820.69,737.04,-0.16 820.69,728.94,-0.21" />
        <lane id="AB2A_1" index="1" speed="17.88" length="8.10" shape="823.89,737.04,-0.16 823.89,728.94,-0.21" />
        <lane id="AB2A_2" index="2" speed="17.88" length="8.10" shape="827.09,737.04,-0.16 827.09,728.94,-0.21" />
        <lane id="AB2A_3" index="3" speed="17.88" length="8.10" shape="830.29,737.04,-0.16 830.29,728.94,-0.21" />
    </edge>
    <edge id="AC2A" from="AC" to="A" priority="-1">
        <lane id="AC2A_0" index="0" speed="17.88" length="11.30" shape="856.80,723.34,-0.16 845.49,723.34,-0.23" />
        <lane id="AC2A_1" index="1" speed="17.88" length="11.30" shape="856.80,720.14,-0.16 845.49,720.14,-0.23" />
        <lane id="AC2A_2" index="2" speed="17.88" length="11.30" shape="856.80,716.94,-0.16 845.49,716.94,-0.23" />
        <lane id="AC2A_3" index="3" speed="17.88" length="11.30" shape="856.80,713.74,-0.16 845.49,713.74,-0.23" />
    </edge>
    <edge id="B2BA" from="B" to="BA" priority="-1">
        <lane id="B2BA_0" index="0" speed="20.12" length="216.21" shape="1060.11,666.14,0.27 1060.11,882.35,0.27" />
        <lane id="B2BA_1" index="1" speed="20.12" length="216.21" shape="1056.91,666.14,0.27 1056.91,882.35,0.27" />
        <lane id="B2BA_2" index="2" speed="20.12" length="216.21" shape="1053.71,666.14,0.27 1053.71,882.35,0.27" />
    </edge>
    <edge id="B2BB" from="B" to="BB" priority="-1">
        <lane id="B2BB_0" index="0" speed="20.12" length="206.61" shape="1065.71,654.14,0.27 1272.32,654.14,0.27" />
        <lane id="B2BB_1" index="1" speed="20.12" length="206.61" shape="1065.71,657.34,0.27 1272.32,657.34,0.27" />
        <lane id="B2BB_2" index="2" speed="20.12" length="206.61" shape="1065.71,660.54,0.27 1272.32,660.54,0.27" />
    </edge>
    <edge id="B2BC" from="B" to="BC" priority="-1">
        <lane id="B2BC_0" index="0" speed="20.12" length="206.61" shape="1044.11,648.54,0.27 1044.11,441.92,0.27" />
        <lane id="B2BC_1" index="1" speed="20.12" length="206.61" shape="1047.31,648.54,0.27 1047.31,441.92,0.27" />
        <lane id="B2BC_2" index="2" speed="20.12" length="206.61" shape="1050.51,648.54,0.27 1050.51,441.92,0.27" />
    </edge>
    <edge id="C2CA" from="C" to="CA" priority="-1">
        <lane id="C2CA_0" index="0" speed="13.41" length="314.27" shape="848.69,326.27,-0.50 1162.96,326.27,-0.50" />
        <lane id="C2CA_1" index="1" speed="13.41" length="314.27" shape="848.69,329.47,-0.50 1162.96,329.47,-0.50" />
    </edge>
    <edge id="C2CB" from="C" to="CB" priority="-1">
        <lane id="C2CB_0" index="0" speed="13.41" length="314.27" shape="827.09,314.27,-0.50 827.09,-0.00,-0.50" />
        <lane id="C2CB_1" index="1" speed="13.41" length="314.27" shape="830.29,314.27,-0.50 830.29,-0.00,-0.50" />
    </edge>
    <edge id="C2CC" from="C" to="CC" priority="-1">
        <lane id="C2CC_0" index="0" speed="13.41" length="320.67" shape="821.49,335.87,-0.50 500.83,335.87,-0.50" />
        <lane id="C2CC_1" index="1" speed="13.41" length="320.67" shape="821.49,332.67,-0.50 500.83,332.67,-0.50" />
    </edge>
    <edge id="C2TL" from="C" to="TL" priority="-1">
        <lane id="C2TL_0" index="0" speed="13.41" length="294.27" shape="843.09,347.87,-0.48 843.09,642.14,-0.03" />
        <lane id="C2TL_1" index="1" speed="13.41" length="294.27" shape="839.89,347.87,-0.48 839.89,642.14,-0.03" />
        <lane id="C2TL_2" index="2" speed="13.41" length="294.27" shape="836.69,347.87,-0.48 836.69,642.14,-0.03" />
        <lane id="C2TL_3" index="3" speed="13.41" length="294.27" shape="833.49,347.87,-0.48 833.49,642.14,-0.03" />
    </edge>
    <edge id="CA2C" from="CA" to="C" priority="-1">
        <lane id="CA2C_0" index="0" speed="13.41" length="314.27" shape="1162.96,342.27,-0.50 848.69,342.27,-0.50" />
        <lane id="CA2C_1" index="1" speed="13.41" length="314.27" shape="1162.96,339.07,-0.50 848.69,339.07,-0.50" />
        <lane id="CA2C_2" index="2" speed="13.41" length="314.27" shape="1162.96,335.87,-0.50 848.69,335.87,-0.50" />
        <lane id="CA2C_3" index="3" speed="13.41" length="314.27" shape="1162.96,332.67,-0.50 848.69,332.67,-0.50" />
    </edge>
    <edge id="CB2C" from="CB" to="C" priority="-1">
        <lane id="CB2C_0" index="0" speed="13.41" length="314.27" shape="843.09,-0.00,-0.50 843.09,314.27,-0.50" />
        <lane id="CB2C_1" index="1" speed="13.41" length="314.27" shape="839.89,-0.00,-0.50 839.89,314.27,-0.50" />
        <lane id="CB2C_2" index="2" speed="13.41" length="314.27" shape="836.69,-0.00,-0.50 836.69,314.27,-0.50" />
        <lane id="CB2C_3" index="3" speed="13.41" length="314.27" shape="833.49,-0.00,-0.50 833.49,314.27,-0.50" />
    </edge>
    <edge id="CC2C" from="CC" to="C" priority="-1">
        <lane id="CC2C_0" index="0" speed="13.41" length="320.67" shape="500.83,319.87,-0.50 821.49,319.87,-0.50" />
        <lane id="CC2C_1" index="1" speed="13.41" length="320.67" shape="500.83,323.07,-0.50 821.49,323.07,-0.50" />
        <lane id="CC2C_2" index="2" speed="13.41" length="320.67" shape="500.83,326.27,-0.50 821.49,326.27,-0.50" />
        <lane id="CC2C_3" index="3" speed="13.41" length="320.67" shape="500.83,329.47,-0.50 821.49,329.47,-0.50" />
    </edge>
    <edge id="D2TL" from="D" to="TL" priority="-1">
        <lane id="D2TL_0" index="0" speed="20.12" length="379.15" shape="435.95,647.74,-1.21 815.09,647.74,-0.05" />
        <lane id="D2TL_1" index="1" speed="20.12" length="379.15" shape="435.95,650.94,-1.21 815.09,650.94,-0.05" />
        <lane id="D2TL_2" index="2" speed="20.12" length="379.15" shape="435.95,654.14,-1.21 815.09,654.14,-0.05" />
        <lane id="D2TL_3" index="3" speed="20.12" length="379.15" shape="435.95,657.34,-1.21 815.09,657.34,-0.05" />
        <lane id="D2TL_4" index="4" speed="20.12" length="379.15" shape="435.95,660.54,-1.21 815.09,660.54,-0.05" />
    </edge>
    <edge id="DA2D" from="DA" to="D" priority="-1">
        <lane id="DA2D_0" index="0" speed="20.12" length="395.95" shape="430.35,246.19,-1.27 430.35,642.14,-1.27" />
        <lane id="DA2D_1" index="1" speed="20.12" length="395.95" shape="427.15,246.19,-1.27 427.15,642.14,-1.27" />
        <lane id="DA2D_2" index="2" speed="20.12" length="395.95" shape="423.95,246.19,-1.27 423.95,642.14,-1.27" />
        <lane id="DA2D_3" index="3" speed="20.12" length="395.95" shape="420.75,246.19,-1.27 420.75,642.14,-1.27" />