<net xmlns:xsi="http://www.w3.org/2001/XMLSchema-instance" version="1.9" junctionCornerDetail="5" limitTurnSpeed="5.50" xsi:noNamespaceSchemaLocation="http://sumo.dlr.de/xsd/net_file.xsd">

    <location netOffset="617.14,1228.13" convBoundary="0.00,0.00,2070.92,1981.90" origBoundary="-617.14,-1228.13,1453.78,753.78" projParameter="!" />

    <edge id=":A_0" function="internal">
        <lane id=":A_0_0" index="0" speed="6.51" length="9.03" shape="612.34,1288.53 611.99,1286.08 610.94,1284.33 609.19,1283.28 606.74,1282.93" />
    </edge>
    <edge id=":A_1" function="internal">
        <lane id=":A_1_0" index="0" speed="9.26" length="19.35" shape="615.54,1288.53 616.29,1283.28 618.54,1279.53 622.29,1277.28 627.54,1276.53" />
    </edge>
    <edge id=":A_2" function="internal">
        <lane id=":A_2_0" index="0" speed="6.41" length="13.98" shape="615.54,1288.53 615.84,1282.59 616.76,1279.05 618.29,1277.90 620.42,1279.15" />
    </edge>
    <edge id=":A_3" function="internal">
        <lane id=":A_3_0" index="0" speed="3.65" length="4.67" shape="615.54,1288.53 616.34,1287.33 617.14,1286.93 617.94,1287.33 618.74,1288.53" />
    </edge>
    <edge id=":A_4" function="internal">
        <lane id=":A_4_0" index="0" speed="4.98" length="7.75" shape="627.54,1282.93 622.68,1276.88" />
    </edge>
    <edge id=":A_5" function="internal">
        <lane id=":A_5_0" index="0" speed="6.51" length="9.03" shape="627.54,1282.93 625.09,1283.28 623.34,1284.33 622.29,1286.08 621.94,1288.53" />
    </edge>
    <edge id=":A_6" function="internal">
        <lane id=":A_6_0" index="0" speed="17.88" length="20.80" shape="627.54,1282.93 606.74,1282.93" />
        <lane id=":A_6_1" index="1" speed="17.88" length="20.80" shape="627.54,1279.73 606.74,1279.73" />
    </edge>
    <edge id=":A_8" function="internal">
        <lane id=":A_8_0" index="0" speed="3.65" length="1.44" shape="627.54,1279.73 626.34,1278.93" />
    </edge>
    <edge id=":A_19" function="internal">
        <lane id=":A_19_0" index="0" speed="3.65" length="3.23" shape="626.34,1278.93 625.94,1278.13 626.34,1277.33 627.54,1276.53" />
    </edge>
    <edge id=":A_9" function="internal">
        <lane id=":A_9_0" index="0" speed="6.51" length="9.03" shape="621.94,1267.73 622.29,1270.18 623.34,1271.93 625.09,1272.98 627.54,1273.33" />
    </edge>
    <edge id=":A_10" function="internal">
        <lane id=":A_10_0" index="0" speed="10.07" length="9.24" shape="621.94,1267.73 621.99,1271.45 622.13,1274.22 622.36,1276.03 622.68,1276.88" />
    </edge>
    <edge id=":A_11" function="internal">
        <lane id=":A_11_0" index="0" speed="17.88" length="20.80" shape="621.94,1267.73 621.94,1288.53" />
        <lane id=":A_11_1" index="1" speed="17.88" length="20.80" shape="618.74,1267.73 618.74,1288.53" />
    </edge>
    <edge id=":A_13" function="internal">
        <lane id=":A_13_0" index="0" speed="9.26" length="19.35" shape="618.74,1267.73 617.99,1272.98 615.74,1276.73 611.99,1278.98 606.74,1279.73" />
    </edge>
    <edge id=":A_14" function="internal">
        <lane id=":A_14_0" index="0" speed="17.88" length="20.80" shape="606.74,1273.33 627.54,1273.33" />
        <lane id=":A_14_1" index="1" speed="17.88" length="20.80" shape="606.74,1276.53 627.54,1276.53" />
    </edge>
    <edge id=":A_16" function="internal">
        <lane id=":A_16_0" index="0" speed="12.57" length="11.12" shape="606.74,1276.53 611.12,1276.24 614.35,1275.99 617.19,1276.66 617.65,1277.01" />
    </edge>
    <edge id=":A_17" function="internal">
        <lane id=":A_17_0" index="0" speed="9.26" length="5.01" shape="606.74,1276.53 611.70,1277.24" />
    </edge>
    <edge id=":A_18" function="internal">
        <lane id=":A_18_0" index="0" speed="3.65" length="1.44" shape="606.74,1276.53 607.94,1277.33" />
    </edge>
    <edge id=":A_20" function="internal">
        <lane id=":A_20_0" index="0" speed="12.57" length="3.50" shape="617.65,1277.01 620.42,1279.15" />
    </edge>
    <edge id=":A_21" function="internal">
        <lane id=":A_21_0" index="0" speed="9.26" length="14.34" shape="611.70,1277.24 611.99,1277.28 615.74,1279.53 617.99,1283.28 618.74,1288.53" />
    </edge>
    <edge id=":A_22" function="internal">
        <lane id=":A_22_0" index="0" speed="3.65" length="3.23" shape="607.94,1277.33 608.34,1278.13 607.94,1278.93 606.74,1279.73" />
    </edge>
    <edge id=":AA_0" function="internal">
        <lane id=":AA_0_0" index="0" speed="3.65" length="4.67" shape="592.44,1279.73 591.24,1278.93 590.84,1278.13 591.24,1277.33 592.44,1276.53" />
    </edge>
    <edge id=":AB_0" function="internal">
        <lane id=":AB_0_0" index="0" speed="3.65" length="4.67" shape="618.74,1302.83 617.94,1304.03 617.14,1304.43 616.34,1304.03 615.54,1302.83" />
    </edge>
    <edge id=":AC_0" function="internal">
        <lane id=":AC_0_0" index="0" speed="3.65" length="4.67" shape="641.84,1276.53 643.04,1277.33 643.44,1278.13 643.04,1278.93 641.84,1279.73" />
    </edge>
    <edge id=":A_intern_0" function="internal">
        <lane id=":A_intern_0_0" index="0" speed="6.41" length="13.99" shape="622.83,1277.03 609.14,1274.13" />
        <lane id=":A_intern_0_1" index="1" speed="5.47" length="9.71" shape="620.56,1279.29 612.34,1274.13" />
        <lane id=":A_intern_0_2" index="2" speed="4.83" length="7.20" shape="620.56,1279.29 615.54,1274.13" />
    </edge>
    <edge id=":B_0" function="internal">
        <lane id=":B_0_0" index="0" speed="6.51" length="9.03" shape="1300.34,1216.93 1302.79,1216.58 1304.54,1215.53 1305.59,1213.78 1305.94,1211.33" />
        <lane id=":B_0_1" index="1" speed="7.33" length="11.73" shape="1300.34,1216.93 1304.19,1216.58 1306.94,1215.53 1308.59,1213.78 1309.14,1211.33" />
        <lane id=":B_0_2" index="2" speed="8.10" length="14.57" shape="1300.34,1216.93 1305.59,1216.58 1309.34,1215.53 1311.59,1213.78 1312.34,1211.33" />
        <lane id=":B_0_3" index="3" speed="8.83" length="17.50" shape="1300.34,1216.93 1306.99,1216.58 1311.74,1215.53 1314.59,1213.78 1315.54,1211.33" />
    </edge>
    <edge id=":B_4" function="internal">
        <lane id=":B_4_0" index="0" speed="17.88" length="33.60" shape="1300.34,1216.93 1333.94,1216.93" />
        <lane id=":B_4_1" index="1" speed="17.88" length="33.60" shape="1300.34,1220.13 1333.94,1220.13" />
        <lane id=":B_4_2" index="2" speed="17.88" length="33.60" shape="1300.34,1223.33 1333.94,1223.33" />
        <lane id=":B_4_3" index="3" speed="17.88" length="33.60" shape="1300.34,1226.53 1333.94,1226.53" />
    </edge>
    <edge id=":B_8" function="internal">
        <lane id=":B_8_0" index="0" speed="11.35" length="29.61" shape="1300.34,1226.53 1312.59,1226.88 1321.34,1227.93 1326.59,1229.68 1328.34,1232.13" />
        <lane id=":B_8_1" index="1" speed="10.77" length="26.54" shape="1300.34,1226.53 1311.19,1226.88 1318.94,1227.93 1323.59,1229.68 1325.14,1232.13" />
        <lane id=":B_8_2" index="2" speed="10.16" length="23.50" shape="1300.34,1226.53 1309.79,1226.88 1316.54,1227.93 1320.59,1229.68 1321.94,1232.13" />
        <lane id=":B_8_3" index="3" speed="9.51" length="20.48" shape="1300.34,1226.53 1308.39,1226.88 1314.14,1227.93 1317.59,1229.68 1318.74,1232.13" />
    </edge>
    <edge id=":C_0" function="internal">
        <lane id=":C_0_0" index="0" speed="7.33" length="11.73" shape="609.14,630.86 608.79,627.01 607.74,624.26 605.99,622.61 603.54,622.06" />
    </edge>
    <edge id=":C_1" function="internal">
        <lane id=":C_1_0" index="0" speed="17.88" length="33.60" shape="609.14,630.86 609.14,597.26" />
        <lane id=":C_1_1" index="1" speed="17.88" length="33.60" shape="612.34,630.86 612.34,597.26" />
        <lane id=":C_1_2" index="2" speed="17.88" length="33.60" shape="615.54,630.86 615.54,597.26" />
    </edge>
    <edge id=":C_4" function="internal">
        <lane id=":C_4_0" index="0" speed="11.36" length="5.01" shape="615.54,630.86 616.25,625.90" />
    </edge>
    <edge id=":C_5" function="internal">
        <lane id=":C_5_0" index="0" speed="3.65" length="1.44" shape="615.54,630.86 616.34,629.66" />
    </edge>
    <edge id=":C_25" function="internal">
        <lane id=":C_25_0" index="0" speed="11.36" length="24.66" shape="616.25,625.90 616.69,622.81 620.14,617.06 625.89,613.61 633.94,612.46" />
    </edge>
    <edge id=":C_26" function="internal">
        <lane id=":C_26_0" index="0" speed="3.65" length="3.23" shape="616.34,629.66 617.14,629.26 617.94,629.66 618.74,630.86" />
    </edge>
    <edge id=":C_6" function="internal">
        <lane id=":C_6_0" index="0" speed="6.51" length="9.03" shape="633.94,625.26 631.49,625.61 629.74,626.66 628.69,628.41 628.34,630.86" />
    </edge>
    <edge id=":C_7" function="internal">
        <lane id=":C_7_0" index="0" speed="17.88" length="30.62" shape="633.94,625.26 624.85,624.76 618.63,623.66 612.47,622.56 603.54,622.06" />
        <lane id=":C_7_1" index="1" speed="17.88" length="30.62" shape="633.94,622.06 624.85,621.56 618.63,620.46 612.47,619.36 603.54,618.86" />
        <lane id=":C_7_2" index="2" speed="17.88" length="30.62" shape="633.94,618.86 624.85,618.36 618.63,617.26 612.47,616.16 603.54,615.66" />
    </edge>
    <edge id=":C_10" function="internal">
        <lane id=":C_10_0" index="0" speed="11.36" length="7.98" shape="633.94,615.66 626.04,614.53" />
    </edge>
    <edge id=":C_11" function="internal">
        <lane id=":C_11_0" index="0" speed="3.65" length="1.44" shape="633.94,615.66 632.74,614.86" />
    </edge>
    <edge id=":C_27" function="internal">
        <lane id=":C_27_0" index="0" speed="11.36" length="21.69" shape="626.04,614.53 625.89,614.51 620.14,611.06 616.69,605.31 615.54,597.26" />
    </edge>
    <edge id=":C_28" function="internal">
        <lane id=":C_28_0" index="0" speed="3.65" length="3.23" shape="632.74,614.86 632.34,614.06 632.74,613.26 633.94,612.46" />
    </edge>
    <edge id=":C_12" function="internal">
        <lane id=":C_12_0" index="0" speed="7.33" length="11.73" shape="628.34,597.26 628.69,601.11 629.74,603.86 631.49,605.51 633.94,606.06" />
    </edge>
    <edge id=":C_13" function="internal">
        <lane id=":C_13_0" index="0" speed="17.88" length="33.60" shape="628.34,597.26 628.34,630.86" />
        <lane id=":C_13_1" index="1" speed="17.88" length="33.60" shape="625.14,597.26 625.14,630.86" />
        <lane id=":C_13_2" index="2" speed="17.88" length="33.60" shape="621.94,597.26 621.94,630.86" />
        <lane id=":C_13_3" index="3" speed="17.88" length="33.60" shape="618.74,597.26 618.74,630.86" />
    </edge>
    <edge id=":C_17" function="internal">
        <lane id=":C_17_0" index="0" speed="10.88" length="6.03" shape="618.74,597.26 618.03,603.25" />
    </edge>
    <edge id=":C_18" function="internal">
        <lane id=":C_18_0" index="0" speed="3.65" length="1.44" shape="618.74,597.26 617.94,598.46" />
    </edge>
    <edge id=":C_29" function="internal">
        <lane id=":C_29_0" index="0" speed="10.88" length="21.12" shape="618.03,603.25 617.79,605.31 614.94,611.06 610.19,614.51 603.54,615.66" />
    </edge>
    <edge id=":C_30" function="internal">
        <lane id=":C_30_0" index="0" speed="3.65" length="3.23" shape="617.94,598.46 617.14,598.86 616.34,598.46 615.54,597.26" />
    </edge>
    <edge id=":C_19" function="internal">
        <lane id=":C_19_0" index="0" speed="6.51" length="9.03" shape="603.54,602.86 605.99,602.51 607.74,601.46 608.79,599.71 609.14,597.26" />
    </edge>
    <edge id=":C_20" function="internal">
        <lane id=":C_20_0" index="0" speed="17.88" length="30.62" shape="603.54,602.86 612.63,603.36 618.85,604.46 625.01,605.56 633.94,606.06" />
        <lane id=":C_20_1" index="1" speed="17.88" length="30.62" shape="603.54,606.06 612.63,606.56 618.85,607.66 625.01,608.76 633.94,609.26" />
        <lane id=":C_20_2" index="2" speed="17.88" length="30.62" shape="603.54,609.26 612.63,609.76 618.85,610.86 625.01,611.96 633.94,612.46" />
    </edge>
    <edge id=":C_23" function="internal">
        <lane id=":C_23_0" index="0" speed="10.88" length="6.09" shape="603.54,612.46 609.54,613.50" />
    </edge>
    <edge id=":C_24" function="internal">
        <lane id=":C_24_0" index="0" speed="3.65" length="1.44" shape="603.54,612.46 604.74,613.26" />
    </edge>
    <edge id=":C_31" function="internal">
        <lane id=":C_31_0" index="0" speed="10.88" length="21.05" shape="609.54,613.50 610.19,613.61 614.94,617.06 617.79,622.81 618.74,630.86" />
    </edge>
    <edge id=":C_32" function="internal">
        <lane id=":C_32_0" index="0" speed="3.65" length="3.23" shape="604.74,613.26 605.14,614.06 604.74,614.86 603.54,615.66" />
    </edge>
    <edge id=":CA_0" function="internal">
        <lane id=":CA_0_0" index="0" speed="3.65" length="4.67" shape="1231.20,612.46 1232.40,613.26 1232.80,614.06 1232.40,614.86 1231.20,615.66" />
    </edge>
    <edge id=":CB_0" function="internal">
        <lane id=":CB_0_0" index="0" speed="3.65" length="4.67" shape="615.54,-0.00 616.34,-1.20 617.14,-1.60 617.94,-1.20 618.74,0.00" />
    </edge>
    <edge id=":CC_0" function="internal">
        <lane id=":CC_0_0" index="0" speed="3.65" length="4.67" shape="3.08,615.66 1.88,614.86 1.48,614.06 1.88,613.26 3.08,612.46" />
    </edge>
    <edge id=":D_0" function="internal">
        <lane id=":D_0_0" index="0" speed="12.38" length="35.45" shape="297.37,1232.13 299.12,1225.48 304.37,1220.73 313.12,1217.88 325.37,1216.93" />
        <lane id=":D_0_1" index="1" speed="11.49" length="30.39" shape="300.57,1232.13 302.12,1226.88 306.77,1223.13 314.52,1220.88 325.37,1220.13" />
        <lane id=":D_0_2" index="2" speed="10.54" length="25.39" shape="303.77,1232.13 305.12,1228.28 309.17,1225.53 315.92,1223.88 325.37,1223.33" />
        <lane id=":D_0_3" index="3" speed="9.51" length="20.48" shape="306.97,1232.13 308.12,1229.68 311.57,1227.93 317.32,1226.88 325.37,1226.53" />
    </edge>
    <edge id=":D_4" function="internal">
        <lane id=":D_4_0" index="0" speed="6.51" length="9.03" shape="319.77,1211.33 320.12,1213.78 321.17,1215.53 322.92,1216.58 325.37,1216.93" />
        <lane id=":D_4_1" index="1" speed="8.00" length="14.19" shape="316.57,1211.33 317.12,1215.18 318.77,1217.93 321.52,1219.58 325.37,1220.13" />
        <lane id=":D_4_2" index="2" speed="9.26" length="19.35" shape="313.37,1211.33 314.12,1216.58 316.37,1220.33 320.12,1222.58 325.37,1223.33" />
        <lane id=":D_4_3" index="3" speed="10.36" length="24.51" shape="310.17,1211.33 311.12,1217.98 313.97,1222.73 318.72,1225.58 325.37,1226.53" />
    </edge>
    <edge id=":D_8" function="internal">
        <lane id=":D_8_0" index="0" speed="17.88" length="33.60" shape="291.77,1216.93 325.37,1216.93" />
        <lane id=":D_8_1" index="1" speed="17.88" length="33.60" shape="291.77,1220.13 325.37,1220.13" />
        <lane id=":D_8_2" index="2" speed="17.88" length="33.60" shape="291.77,1223.33 325.37,1223.33" />
        <lane id=":D_8_3" index="3" speed="17.88" length="33.60" shape="291.77,1226.53 325.37,1226.53" />
    </edge>
    <edge id=":TL_0" function="internal">
        <lane id=":TL_0_0" index="0" speed="17.88" length="20.80" shape="609.14,1232.13 609.14,1211.33" />
        <lane id=":TL_0_1" index="1" speed="17.88" length="20.80" shape="612.34,1232.13 612.34,1211.33" />
        <lane id=":TL_0_2" index="2" speed="17.88" length="20.80" shape="615.54,1232.13 615.54,1211.33" />
    </edge>
    <edge id=":TL_3" function="internal">
        <lane id=":TL_3_0" index="0" speed="9.51" length="2.14" shape="615.54,1232.13 616.45,1230.19" />
    </edge>
    <edge id=":TL_4" function="internal">
        <lane id=":TL_4_0" index="0" speed="3.65" length="1.44" shape="615.54,1232.13 616.34,1230.93" />
    </edge>
    <edge id=":TL_15" function="internal">
        <lane id=":TL_15_0" index="0" speed="9.51" length="18.34" shape="616.45,1230.19 616.69,1229.68 620.14,1227.93 625.89,1226.88 633.94,1226.53" />
    </edge>
    <edge id=":TL_16" function="internal">
        <lane id=":TL_16_0" index="0" speed="3.65" length="3.23" shape="616.34,1230.93 617.14,1230.53 617.94,1230.93 618.74,1232.13" />
    </edge>
    <edge id=":TL_5" function="internal">
        <lane id=":TL_5_0" index="0" speed="6.51" length="9.03" shape="628.34,1211.33 628.69,1213.78 629.74,1215.53 631.49,1216.58 633.94,1216.93" />
    </edge>
    <edge id=":TL_6" function="internal">
        <lane id=":TL_6_0" index="0" speed="17.88" length="21.12" shape="625.14,1211.33 624.64,1217.61 623.54,1221.92 622.44,1226.14 621.94,1232.13" />
        <lane id=":TL_6_1" index="1" speed="17.88" length="21.12" shape="621.94,1211.33 621.44,1217.61 620.34,1221.92 619.24,1226.14 618.74,1232.13" />
    </edge>
    <edge id=":TL_8" function="internal">
        <lane id=":TL_8_0" index="0" speed="3.65" length="1.44" shape="618.74,1211.33 617.94,1212.53" />
    </edge>
    <edge id=":TL_17" function="internal">
        <lane id=":TL_17_0" index="0" speed="3.65" length="3.23" shape="617.94,1212.53 617.14,1212.93 616.34,1212.53 615.54,1211.33" />
    </edge>
    <edge id=":TL_9" function="internal">
        <lane id=":TL_9_0" index="0" speed="6.51" length="9.03" shape="603.54,1216.93 605.99,1216.58 607.74,1215.53 608.79,1213.78 609.14,1211.33" />
    </edge>
    <edge id=":TL_10" function="internal">
        <lane id=":TL_10_0" index="0" speed="17.88" length="30.40" shape="603.54,1216.93 633.94,1216.93" />
        <lane id=":TL_10_1" index="1" speed="17.88" length="30.40" shape="603.54,1220.13 633.94,1220.13" />
        <lane id=":TL_10_2" index="2" speed="17.88" length="30.40" shape="603.54,1223.33 633.94,1223.33" />
        <lane id=":TL_10_3" index="3" speed="17.88" length="30.40" shape="603.54,1226.53 633.94,1226.53" />
    </edge>
    <edge id=":TL_14" function="internal">
        <lane id=":TL_14_0" index="0" speed="8.83" length="17.50" shape="603.54,1226.53 610.19,1226.88 614.94,1227.93 617.79,1229.68 618.74,1232.13" />
    </edge>

    <edge id="A2AA" from="A" to="AA" priority="-1">
        <lane id="A2AA_0" index="0" speed="17.88" length="14.30" shape="606.74,1282.93 592.44,1282.93" />
        <lane id="A2AA_1" index="1" speed="17.88" length="14.30" shape="606.74,1279.73 592.44,1279.73" />
    </edge>
    <edge id="A2AB" from="A" to="AB" priority="-1">
        <lane id="A2AB_0" index="0" speed="17.88" length="14.30" shape="621.94,1288.53 621.94,1302.83" />
        <lane id="A2AB_1" index="1" speed="17.88" length="14.30" shape="618.74,1288.53 618.74,1302.83" />
    </edge>
    <edge id="A2AC" from="A" to="AC" priority="-1">
        <lane id="A2AC_0" index="0" speed="17.88" length="14.30" shape="627.54,1273.33 641.84,1273.33" />
        <lane id="A2AC_1" index="1" speed="17.88" length="14.30" shape="627.54,1276.53 641.84,1276.53" />
    </edge>
    <edge id="A2TL" from="A" to="A_intern" priority="-1" shape="617.14,1278.13 617.24,1278.23">
        <lane id="A2TL_0" index="0" speed="17.88" length="0.20" shape="622.68,1276.88 622.83,1277.03" />
        <lane id="A2TL_1" index="1" speed="17.88" length="0.20" shape="620.42,1279.15 620.56,1279.29" />
    </edge>
    <edge id="A2TL_intern" from="A_intern" to="TL" priority="-1">
        <lane id="A2TL_intern_0" index="0" speed="17.88" length="42.00" shape="609.14,1274.13 609.14,1232.13" />
        <lane id="A2TL_intern_1" index="1" speed="17.88" length="42.00" shape="612.34,1274.13 612.34,1232.13" />
        <lane id="A2TL_intern_2" index="2" speed="17.88" length="42.00" shape="615.54,1274.13 615.54,1232.13" />
    </edge>
    <edge id="AA2A" from="AA" to="A" priority="-1">
        <lane id="AA2A_0" index="0" speed="17.88" length="14.30" shape="592.44,1273.33 606.74,1273.33" />
        <lane id="AA2A_1" index="1" speed="17.88" length="14.30" shape="592.44,1276.53 606.74,1276.53" />
    </edge>
    <edge id="AB2A" from="AB" to="A" priority="-1">
        <lane id="AB2A_0" index="0" speed="17.88" length="14.30" shape="612.34,1302.83 612.34,1288.53" />
        <lane id="AB2A_1" index="1" speed="17.88" length="14.30" shape="615.54,1302.83 615.54,1288.53" />
    </edge>
    <edge id="AC2A" from="AC" to="A" priority="-1">
        <lane id="AC2A_0" index="0" speed="17.88" length="14.30" shape="641.84,1282.93 627.54,1282.93" />
        <lane id="AC2A_1" index="1" speed="17.88" length="14.30" shape="641.84,1279.73 627.54,1279.73" />
    </edge>
    <edge id="B2BA" from="B" to="BA" priority="-1">
        <lane id="B2BA_0" index="0" speed="17.88" length="749.78" shape="1328.34,1232.13 1328.34,1981.90" />
        <lane id="B2BA_1" index="1" speed="17.88" length="749.78" shape="1325.14,1232.13 1325.14,1981.90" />
        <lane id="B2BA_2" index="2" speed="17.88" length="749.78" shape="1321.94,1232.13 1321.94,1981.90" />
        <lane id="B2BA_3" index="3" speed="17.88" length="749.78" shape="1318.74,1232.13 1318.74,1981.90" />
    </edge>
    <edge id="B2BB" from="B" to="BB" priority="-1">
        <lane id="B2BB_0" index="0" speed="17.88" length="736.98" shape="1333.94,1216.93 2070.92,1216.93" />
        <lane id="B2BB_1" index="1" speed="17.88" length="736.98" shape="1333.94,1220.13 2070.92,1220.13" />
        <lane id="B2BB_2" index="2" speed="17.88" length="736.98" shape="1333.94,1223.33 2070.92,1223.33" />
        <lane id="B2BB_3" index="3" speed="17.88" length="736.98" shape="1333.94,1226.53 2070.92,1226.53" />
    </edge>
    <edge id="B2BC" from="B" to="BC" priority="-1">
        <lane id="B2BC_0" index="0" speed="17.88" length="736.98" shape="1305.94,1211.33 1305.94,474.35" />
        <lane id="B2BC_1" index="1" speed="17.88" length="736.98" shape="1309.14,1211.33 1309.14,474.35" />
        <lane id="B2BC_2" index="2" speed="17.88" length="736.98" shape="1312.34,1211.33 1312.34,474.35" />
        <lane id="B2BC_3" index="3" speed="17.88" length="736.98" shape="1315.54,1211.33 1315.54,474.35" />
    </edge>
    <edge id="C2CA" from="C" to="CA" priority="-1">
        <lane id="C2CA_0" index="0" speed="17.88" length="597.26" shape="633.94,606.06 1231.20,606.06" />
        <lane id="C2CA_1" index="1" speed="17.88" length="597.26" shape="633.94,609.26 1231.20,609.26" />
        <lane id="C2CA_2" index="2" speed="17.88" length="597.26" shape="633.94,612.46 1231.20,612.46" />
    </edge>
    <edge id="C2CB" from="C" to="CB" priority="-1">
        <lane id="C2CB_0" index="0" speed="17.88" length="597.26" shape="609.14,597.26 609.14,-0.00" />
        <lane id="C2CB_1" index="1" speed="17.88" length="597.26" shape="612.34,597.26 612.34,-0.00" />
        <lane id="C2CB_2" index="2" speed="17.88" length="597.26" shape="615.54,597.26 615.54,-0.00" />
    </edge>
    <edge id="C2CC" from="C" to="CC" priority="-1">
        <lane id="C2CC_0" index="0" speed="17.88" length="600.46" shape="603.54,622.06 3.08,622.06" />
        <lane id="C2CC_1" index="1" speed="17.88" length="600.46" shape="603.54,618.86 3.08,618.86" />
        <lane id="C2CC_2" index="2" speed="17.88" length="600.46" shape="603.54,615.66 3.08,615.66" />
    </edge>
    <edge id="C2TL" from="C" to="TL" priority="-1">
        <lane id="C2TL_0" index="0" speed="17.88" length="580.46" shape="628.34,630.86 628.34,1211.33" />
        <lane id="C2TL_1" index="1" speed="17.88" length="580.46" shape="625.14,630.86 625.14,1211.33" />
        <lane id="C2TL_2" index="2" speed="17.88" length="580.46" shape="621.94,630.86 621.94,1211.33" />
        <lane id="C2TL_3" index="3" speed="17.88" length="580.46" shape="618.74,630.86 618.74,1211.33" />
    </edge>
    <edge id="CA2C" from="CA" to="C" priority="-1">
        <lane id="CA2C_0" index="0" speed="17.88" length="597.26" shape="1231.20,625.26 633.94,625.26" />
        <lane id="CA2C_1" index="1" speed="17.88" length="597.26" shape="1231.20,622.06 633.94,622.06" />
        <lane id="CA2C_2" index="2" speed="17.88" length="597.26" shape="1231.20,618.86 633.94,618.86" />
        <lane id="CA2C_3" index="3" speed="17.88" length="597.26" shape="1231.20,615.66 633.94,615.66" />
    </edge>
    <edge id="CB2C" from="CB" to="C" priority="-1">
        <lane id="CB2C_0" index="0" speed="17.88" length="597.26" shape="628.34,0.00 628.34,597.26" />
        <lane id="CB2C_1" index="1" speed="17.88" length="597.26" shape="625.14,0.00 625.14,597.26" />
        <lane id="CB2C_2" index="2" speed="17.88" length="597.26" shape="621.94,0.00 621.94,597.26" />
        <lane id="CB2C_3" index="3" speed="17.88" length="597.26" shape="618.74,0.00 618.74,597.26" />
    </edge>
    <edge id="CC2C" from="CC" to="C" priority="-1">
        <lane id="CC2C_0" index="0" speed="17.88" length="600.46" shape="3.08,602.86 603.54,602.86" />
        <lane id="CC2C_1" index="1" speed="17.88" length="600.46" shape="3.08,606.06 603.54,606.06" />
        <lane id="CC2C_2" index="2" speed="17.88" length="600.46" shape="3.08,609.26 603.54,609.26" />
        <lane id="CC2C_3" index="3" speed="17.88" length="600.46" shape="3.08,612.46 603.54,612.46" />
    </edge>
    <edge id="D2TL" from="D" to="TL" priority="-1">
        <lane id="D2TL_0" index="0" speed="17.88" length="278.17" shape="325.37,1216.93 603.54,1216.93" />
        <lane id="D2TL_1" index="1" speed="17.88" length="278.17" shape="325.37,1220.13 603.54,1220.13" />
        <lane id="D2TL_2" index="2" speed="17.88" length="278.17" shape="325.37,1223.33 603.54,1223.33" />
        <lane id="D2TL_3" index="3" speed="17.88" length="278.17" shape="325.37,1226.53 603.54,1226.53" />
    </edge>
    <edge id="DA2D" from="DA" to="D" priority="-1">
        <lane id="DA2D_0" index="0" speed="17.88" length="291.77" shape="319.77,919.56 319.77,1211.33" />
        <lane id="DA2D_1" index="1" speed="17.88" length="291.77" shape="316.57,919.56 316.57,1211.33" />
        <lane id="DA2D_2" index="2" speed="17.88" length="291.77" shape="313.37,919.56 313.37,1211.33" />
        <lane id="DA2D_3" index="3" speed="17.88" length="291.77" shape="310.17,919.56 310.17,1211.33" />
    </edge>
    <edge id="DB2D" from="DB" to="D" priority="-1">
        <lane id="DB2D_0" index="0" speed="17.88" length="291.77" shape="-0.00,1216.93 291.77,1216.93" />
        <lane id="DB2D_1" index="1" speed="17.88" length="291.77" shape="-0.00,1220.13 291.77,1220.13" />
        <lane id="DB2D_2" index="2" speed="17.88" length="291.77" shape="-0.00,1223.33 291.77,1223.33" />
        <lane id="DB2D_3" index="3" speed="17.88" length="291.77" shape="-0.00,1226.53 291.77,1226.53" />
    </edge>
    <edge id="DC2D" from="DC" to="D" priority="-1">
        <lane id="DC2D_0" index="0" speed="17.88" length="304.57" shape="297.37,1536.70 297.37,1232.13" />
        <lane id="DC2D_1" index="1" speed="17.88" length="304.57" shape="300.57,1536.70 300.57,1232.13" />
        <lane id="DC2D_2" index="2" speed="17.88" length="304.57" shape="303.77,1536.70 303.77,1232.13" />
        <lane id="DC2D_3" index="3" speed="17.88" length="304.57" shape="306.97,1536.70 306.97,1232.13" />
    </edge>
    <edge id="TL2A" from="TL" to="A" priority="-1">
        <lane id="TL2A_0" index="0" speed="17.88" length="35.60" shape="621.94,1232.13 621.94,1267.73" />
        <lane id="TL2A_1" index="1" speed="17.88" length="35.60" shape="618.74,1232.13 618.74,1267.73" />
    </edge>
    <edge id="TL2B" from="TL" to="B" priority="-1">
        <lane id="TL2B_0" index="0" speed="17.88" length="666.40" shape="633.94,1216.93 1300.34,1216.93" />
        <lane id="TL2B_1" index="1" speed="17.88" length="666.40" shape="633.94,1220.13 1300.34,1220.13" />
        <lane id="TL2B_2" index="2" speed="17.88" length="666.40" shape="633.94,1223.33 1300.34,1223.33" />
        <lane id="TL2B_3" index="3" speed="17.88" length="666.40" shape="633.94,1226.53 1300.34,1226.53" />
    </edge>
    <edge id="TL2C" from="TL" to="C" priority="-1">
        <lane id="TL2C_0" index="0" speed="17.88" length="580.46" shape="609.14,1211.33 609.14,630.86" />
        <lane id="TL2C_1" index="1" speed="17.88" length="580.46" shape="612.34,1211.33 612.34,630.86" />
        <lane id="TL2C_2" index="2" speed="17.88" length="580.46" shape="615.54,1211.33 615.54,630.86" />
    </edge>

    <tlLogic id="A" type="static" programID="0" offset="0">
        <phase duration="22" state="rrrrrrrrrGGGGGrrrrr" />
        <phase duration="4" state="rrrrrrrrryyyyyrrrrr" />
        <phase duration="23" state="rrrrGGGGgrrrrrGGrrr" />
        <phase duration="4" state="rrrryyyyyrrrrryyrrr" />
        <phase duration="6" state="rrrrrrrrrrrrrrGGGGG" />
        <phase duration="4" state="rrrrrrrrrrrrrryyyyy" />
        <phase duration="23" state="GGGGrrrrrrrrrrrrrrr" />
        <phase duration="4" state="yyyyrrrrrrrrrrrrrrr" />
    </tlLogic>
    <tlLogic id="AA" type="static" programID="0" offset="0">
        <phase duration="81" state="G" />
        <phase duration="4" state="y" />
        <phase duration="5" state="r" />
    </tlLogic>
    <tlLogic id="AB" type="static" programID="0" offset="0">
        <phase duration="81" state="G" />
        <phase duration="4" state="y" />
        <phase duration="5" state="r" />
    </tlLogic>
    <tlLogic id="AC" type="static" programID="0" offset="0">
        <phase duration="81" state="G" />
        <phase duration="4" state="y" />
        <phase duration="5" state="r" />
    </tlLogic>
    <tlLogic id="B" type="static" programID="0" offset="0">
        <phase duration="81" state="GGGGGGGGGGGG" />
        <phase duration="4" state="yyyyyyyyyyyy" />
        <phase duration="5" state="rrrrrrrrrrrr" />
    </tlLogic>
    <tlLogic id="C" type="static" programID="0" offset="0">
        <phase duration="36" state="rrrrrrGGGGrrrrrrrrrGGGGrr" />
        <phase duration="4" state="rrrrrryyyyrrrrrrrrryyyyrr" />
        <phase duration="6" state="rrrrrrrrrrGGrrrrrrrrrrrGG" />
        <phase duration="4" state="rrrrrrrrrryyrrrrrrrrrrryy" />
        <phase duration="36" state="GGGGggrrrrrrGGGGGggrrrrrr" />
        <phase duration="4" state="yyyyyyrrrrrryyyyyyyrrrrrr" />
    </tlLogic>
    <tlLogic id="CA" type="static" programID="0" offset="0">
        <phase duration="81" state="G" />
        <phase duration="4" state="y" />
        <phase duration="5" state="r" />
    </tlLogic>