<net xmlns:xsi="http://www.w3.org/2001/XMLSchema-instance" version="1.9" junctionCornerDetail="5" limitTurnSpeed="5.50" xsi:noNamespaceSchemaLocation="http://sumo.dlr.de/xsd/net_file.xsd">

    <location netOffset="590.51,594.12" convBoundary="0.00,0.00,1203.64,1202.49" origBoundary="-590.51,-594.12,613.13,608.38" projParameter="!" />

    <edge id=":A_0" function="internal">
        <lane id=":A_0_0" index="0" speed="7.33" length="11.73" shape="585.71,908.71,-4.64 585.36,904.86,-4.64 584.31,902.11,-4.64 582.56,900.46,-4.64 580.11,899.91,-4.64" />
    </edge>
    <edge id=":A_1" function="internal">
        <lane id=":A_1_0" index="0" speed="8.94" length="20.80" shape="585.71,908.71,-4.64 585.71,887.91,-4.48" />
        <lane id=":A_1_1" index="1" speed="8.94" length="20.80" shape="588.91,908.71,-4.64 588.91,887.91,-4.48" />
    </edge>
    <edge id=":A_3" function="internal">
        <lane id=":A_3_0" index="0" speed="8.67" length="5.56" shape="588.91,908.71,-4.64 589.46,903.46,-4.64 589.57,903.20,-4.64" />
    </edge>
    <edge id=":A_4" function="internal">
        <lane id=":A_4_0" index="0" speed="3.65" length="1.44" shape="588.91,908.71,-4.64 589.71,907.51,-4.64" />
    </edge>
    <edge id=":A_17" function="internal">
        <lane id=":A_17_0" index="0" speed="8.67" length="11.29" shape="589.57,903.20,-4.64 591.11,899.71,-4.64 593.86,897.46,-4.64 597.71,896.71,-4.64" />
    </edge>
    <edge id=":A_18" function="internal">
        <lane id=":A_18_0" index="0" speed="3.65" length="3.23" shape="589.71,907.51,-4.64 590.51,907.11,-4.64 591.31,907.51,-4.64 592.11,908.71,-4.64" />
    </edge>
    <edge id=":A_5" function="internal">
        <lane id=":A_5_0" index="0" speed="6.51" length="9.03" shape="597.71,903.11,-4.64 595.26,903.46,-4.64 593.51,904.51,-4.64 592.46,906.26,-4.64 592.11,908.71,-4.64" />
    </edge>
    <edge id=":A_6" function="internal">
        <lane id=":A_6_0" index="0" speed="8.94" length="17.95" shape="597.71,903.11,-4.64 591.89,902.61,-4.64 587.43,901.51,-4.64 583.71,900.41,-4.64 580.11,899.91,-4.64" />
    </edge>
    <edge id=":A_7" function="internal">
        <lane id=":A_7_0" index="0" speed="8.67" length="4.68" shape="597.71,899.91,-4.64 593.86,899.16,-4.60 593.28,898.67,-4.59" />
    </edge>
    <edge id=":A_8" function="internal">
        <lane id=":A_8_0" index="0" speed="3.65" length="1.44" shape="597.71,899.91,-4.64 596.51,899.11,-4.64" />
    </edge>
    <edge id=":A_19" function="internal">
        <lane id=":A_19_0" index="0" speed="8.67" length="12.17" shape="593.28,898.67,-4.59 591.11,896.91,-4.57 589.46,893.16,-4.53 588.91,887.91,-4.48" />
    </edge>
    <edge id=":A_20" function="internal">
        <lane id=":A_20_0" index="0" speed="3.65" length="3.23" shape="596.51,899.11,-4.64 596.11,898.31,-4.64 596.51,897.51,-4.64 597.71,896.71,-4.64" />
    </edge>
    <edge id=":A_9" function="internal">
        <lane id=":A_9_0" index="0" speed="7.33" length="11.73" shape="592.11,887.91,-4.47 592.46,891.76,-4.52 593.51,894.51,-4.57 595.26,896.16,-4.60 597.71,896.71,-4.64" />
    </edge>
    <edge id=":A_10" function="internal">
        <lane id=":A_10_0" index="0" speed="8.94" length="20.80" shape="592.11,887.91,-4.47 592.11,908.71,-4.64" />
    </edge>
    <edge id=":A_11" function="internal">
        <lane id=":A_11_0" index="0" speed="8.94" length="5.01" shape="592.11,887.91,-4.47 591.40,892.87,-4.51" />
    </edge>
    <edge id=":A_12" function="internal">
        <lane id=":A_12_0" index="0" speed="3.65" length="1.44" shape="592.11,887.91,-4.47 591.31,889.11,-4.47" />
    </edge>
    <edge id=":A_21" function="internal">
        <lane id=":A_21_0" index="0" speed="8.94" length="14.34" shape="591.40,892.87,-4.51 591.36,893.16,-4.51 589.11,896.91,-4.55 585.36,899.16,-4.59 580.11,899.91,-4.64" />
    </edge>
    <edge id=":A_22" function="internal">
        <lane id=":A_22_0" index="0" speed="3.65" length="3.23" shape="591.31,889.11,-4.47 590.51,889.51,-4.47 589.71,889.11,-4.47 588.91,887.91,-4.48" />
    </edge>
    <edge id=":A_13" function="internal">
        <lane id=":A_13_0" index="0" speed="6.51" length="9.03" shape="580.11,893.51,-4.64 582.56,893.16,-4.59 584.31,892.11,-4.56 585.36,890.36,-4.52 585.71,887.91,-4.48" />
    </edge>
    <edge id=":A_14" function="internal">
        <lane id=":A_14_0" index="0" speed="8.94" length="17.95" shape="580.11,893.51,-4.64 585.93,894.01,-4.64 590.39,895.11,-4.64 594.11,896.21,-4.64 597.71,896.71,-4.64" />
    </edge>
    <edge id=":A_15" function="internal">
        <lane id=":A_15_0" index="0" speed="8.94" length="8.24" shape="580.11,896.71,-4.64 585.36,897.46,-4.64 587.88,898.96,-4.64" />
    </edge>
    <edge id=":A_16" function="internal">
        <lane id=":A_16_0" index="0" speed="3.65" length="1.44" shape="580.11,896.71,-4.64 581.31,897.51,-4.64" />
    </edge>
    <edge id=":A_23" function="internal">
        <lane id=":A_23_0" index="0" speed="8.94" length="11.12" shape="587.88,898.96,-4.64 589.11,899.71,-4.64 591.36,903.46,-4.64 592.11,908.71,-4.64" />
    </edge>
    <edge id=":A_24" function="internal">
        <lane id=":A_24_0" index="0" speed="3.65" length="3.23" shape="581.31,897.51,-4.64 581.71,898.31,-4.64 581.31,899.11,-4.64 580.11,899.91,-4.64" />
    </edge>
    <edge id=":AA_0" function="internal">
        <lane id=":AA_0_0" index="0" speed="3.65" length="4.67" shape="286.32,899.91,-4.64 285.12,899.11,-4.64 284.72,898.31,-4.64 285.12,897.51,-4.64 286.32,896.71,-4.64" />
    </edge>
    <edge id=":AB_0" function="internal">
        <lane id=":AB_0_0" index="0" speed="3.65" length="4.67" shape="592.11,1202.49,-4.64 591.31,1203.69,-4.64 590.51,1204.09,-4.64 589.71,1203.69,-4.64 588.91,1202.49,-4.64" />
    </edge>
    <edge id=":AC_0" function="internal">
        <lane id=":AC_0_0" index="0" speed="3.65" length="4.67" shape="894.70,896.71,-4.64 895.90,897.51,-4.64 896.30,898.31,-4.64 895.90,899.11,-4.64 894.70,899.91,-4.64" />
    </edge>
    <edge id=":B_0" function="internal">
        <lane id=":B_0_0" index="0" speed="6.51" length="9.03" shape="885.88,610.92,-1.03 885.53,608.47,-1.01 884.48,606.72,-1.00 882.73,605.67,-0.99 880.28,605.32,-0.97" />
    </edge>
    <edge id=":B_1" function="internal">
        <lane id=":B_1_0" index="0" speed="13.41" length="30.62" shape="885.88,610.92,-1.03 886.38,601.83,-1.03 887.48,595.61,-1.03 888.58,589.44,-1.03 889.08,580.52,-1.03" />
        <lane id=":B_1_1" index="1" speed="13.41" length="30.62" shape="889.08,610.92,-1.03 889.58,601.83,-1.03 890.68,595.61,-1.03 891.78,589.44,-1.03 892.28,580.52,-1.03" />
        <lane id=":B_1_2" index="2" speed="13.41" length="30.62" shape="892.28,610.92,-1.03 892.78,601.83,-1.03 893.88,595.61,-1.03 894.98,589.44,-1.03 895.48,580.52,-1.03" />
    </edge>
    <edge id=":B_4" function="internal">
        <lane id=":B_4_0" index="0" speed="11.36" length="7.98" shape="895.48,610.92,-1.03 896.60,603.01,-1.03" />
    </edge>
    <edge id=":B_5" function="internal">
        <lane id=":B_5_0" index="0" speed="3.65" length="1.44" shape="895.48,610.92,-1.03 896.28,609.72,-1.03" />
    </edge>
    <edge id=":B_25" function="internal">
        <lane id=":B_25_0" index="0" speed="11.36" length="21.69" shape="896.60,603.01,-1.03 896.63,602.87,-1.03 900.08,597.12,-1.03 905.83,593.67,-1.03 913.88,592.52,-1.03" />
    </edge>
    <edge id=":B_26" function="internal">
        <lane id=":B_26_0" index="0" speed="3.65" length="3.23" shape="896.28,609.72,-1.03 897.08,609.32,-1.03 897.88,609.72,-1.03 898.68,610.92,-1.03" />
    </edge>
    <edge id=":B_6" function="internal">
        <lane id=":B_6_0" index="0" speed="7.33" length="11.73" shape="913.88,605.32,-1.03 910.03,605.67,-1.03 907.28,606.72,-1.03 905.63,608.47,-1.03 905.08,610.92,-1.03" />
    </edge>
    <edge id=":B_7" function="internal">
        <lane id=":B_7_0" index="0" speed="13.41" length="33.60" shape="913.88,605.32,-1.03 880.28,605.32,-0.97" />
        <lane id=":B_7_1" index="1" speed="13.41" length="33.60" shape="913.88,602.12,-1.03 880.28,602.12,-0.97" />
        <lane id=":B_7_2" index="2" speed="13.41" length="33.60" shape="913.88,598.92,-1.03 880.28,598.92,-0.97" />
        <lane id=":B_7_3" index="3" speed="13.41" length="33.60" shape="913.88,595.72,-1.03 880.28,595.72,-0.97" />
    </edge>
    <edge id=":B_11" function="internal">
        <lane id=":B_11_0" index="0" speed="10.88" length="6.03" shape="913.88,595.72,-1.03 907.89,595.01,-1.03" />
    </edge>
    <edge id=":B_12" function="internal">
        <lane id=":B_12_0" index="0" speed="3.65" length="1.44" shape="913.88,595.72,-1.03 912.68,594.92,-1.03" />
    </edge>
    <edge id=":B_27" function="internal">
        <lane id=":B_27_0" index="0" speed="10.88" length="21.12" shape="907.89,595.01,-1.03 905.83,594.77,-1.03 900.08,591.92,-1.03 896.63,587.17,-1.03 895.48,580.52,-1.03" />
    </edge>
    <edge id=":B_28" function="internal">
        <lane id=":B_28_0" index="0" speed="3.65" length="3.23" shape="912.68,594.92,-1.03 912.28,594.12,-1.03 912.68,593.32,-1.03 913.88,592.52,-1.03" />
    </edge>
    <edge id=":B_13" function="internal">
        <lane id=":B_13_0" index="0" speed="6.51" length="9.03" shape="908.28,580.52,-1.03 908.63,582.97,-1.03 909.68,584.72,-1.03 911.43,585.77,-1.03 913.88,586.12,-1.03" />
    </edge>
    <edge id=":B_14" function="internal">
        <lane id=":B_14_0" index="0" speed="13.41" length="30.62" shape="908.28,580.52,-1.03 907.78,589.60,-1.03 906.68,595.82,-1.03 905.58,601.99,-1.03 905.08,610.92,-1.03" />
        <lane id=":B_14_1" index="1" speed="13.41" length="30.62" shape="905.08,580.52,-1.03 904.58,589.60,-1.03 903.48,595.82,-1.03 902.38,601.99,-1.03 901.88,610.92,-1.03" />
        <lane id=":B_14_2" index="2" speed="13.41" length="30.62" shape="901.88,580.52,-1.03 901.38,589.60,-1.03 900.28,595.82,-1.03 899.18,601.99,-1.03 898.68,610.92,-1.03" />
    </edge>
    <edge id=":B_17" function="internal">
        <lane id=":B_17_0" index="0" speed="10.88" length="6.09" shape="898.68,580.52,-1.03 897.64,586.52,-1.02" />
    </edge>
    <edge id=":B_18" function="internal">
        <lane id=":B_18_0" index="0" speed="3.65" length="1.44" shape="898.68,580.52,-1.03 897.88,581.72,-1.03" />
    </edge>
    <edge id=":B_29" function="internal">
        <lane id=":B_29_0" index="0" speed="10.88" length="21.05" shape="897.64,586.52,-1.02 897.53,587.17,-1.01 894.08,591.92,-1.00 888.33,594.77,-0.99 880.28,595.72,-0.97" />
    </edge>
    <edge id=":B_30" function="internal">
        <lane id=":B_30_0" index="0" speed="3.65" length="3.23" shape="897.88,581.72,-1.03 897.08,582.12,-1.03 896.28,581.72,-1.03 895.48,580.52,-1.03" />
    </edge>
    <edge id=":B_19" function="internal">
        <lane id=":B_19_0" index="0" speed="7.33" length="11.73" shape="880.28,586.12,-0.97 884.13,585.77,-0.99 886.88,584.72,-1.00 888.53,582.97,-1.02 889.08,580.52,-1.03" />
    </edge>
    <edge id=":B_20" function="internal">
        <lane id=":B_20_0" index="0" speed="13.41" length="33.60" shape="880.28,586.12,-0.97 913.88,586.12,-1.03" />
        <lane id=":B_20_1" index="1" speed="13.41" length="33.60" shape="880.28,589.32,-0.97 913.88,589.32,-1.03" />
        <lane id=":B_20_2" index="2" speed="13.41" length="33.60" shape="880.28,592.52,-0.97 913.88,592.52,-1.03" />
    </edge>
    <edge id=":B_23" function="internal">
        <lane id=":B_23_0" index="0" speed="11.36" length="5.01" shape="880.28,592.52,-0.97 885.24,593.22,-0.98" />
    </edge>
    <edge id=":B_24" function="internal">
        <lane id=":B_24_0" index="0" speed="3.65" length="1.44" shape="880.28,592.52,-0.97 881.48,593.32,-0.97" />
    </edge>
    <edge id=":B_31" function="internal">
        <lane id=":B_31_0" index="0" speed="11.36" length="24.66" shape="885.24,593.22,-0.98 888.33,593.67,-0.99 894.08,597.12,-1.00 897.53,602.87,-1.01 898.68,610.92,-1.03" />
    </edge>
    <edge id=":B_32" function="internal">
        <lane id=":B_32_0" index="0" speed="3.65" length="3.23" shape="881.48,593.32,-0.97 881.88,594.12,-0.97 881.48,594.92,-0.97 880.28,595.72,-0.97" />
    </edge>
    <edge id=":BA_0" function="internal">
        <lane id=":BA_0_0" index="0" speed="3.65" length="4.67" shape="898.68,900.68,-1.03 897.88,901.88,-1.03 897.08,902.28,-1.03 896.28,901.88,-1.03 895.48,900.68,-1.03" />
    </edge>
    <edge id=":BB_0" function="internal">
        <lane id=":BB_0_0" index="0" speed="3.65" length="4.67" shape="1203.64,592.52,-1.03 1204.84,593.32,-1.03 1205.24,594.12,-1.03 1204.84,594.92,-1.03 1203.64,595.72,-1.03" />
    </edge>
    <edge id=":BC_0" function="internal">
        <lane id=":BC_0_0" index="0" speed="3.65" length="4.67" shape="895.48,287.55,-1.03 896.28,286.35,-1.03 897.08,285.95,-1.03 897.88,286.35,-1.03 898.68,287.55,-1.03" />
    </edge>
    <edge id=":C_0" function="internal">
        <lane id=":C_0_0" index="0" speed="7.33" length="11.73" shape="588.91,307.46,6.16 588.56,303.61,6.16 587.51,300.86,6.16 585.76,299.21,6.16 583.31,298.66,6.16" />
    </edge>
    <edge id=":C_1" function="internal">
        <lane id=":C_1_0" index="0" speed="8.94" length="20.80" shape="588.91,307.46,6.16 588.91,286.66,6.16" />
    </edge>
    <edge id=":C_2" function="internal">
        <lane id=":C_2_0" index="0" speed="8.94" length="5.01" shape="588.91,307.46,6.16 589.62,302.49,6.16" />
    </edge>
    <edge id=":C_3" function="internal">
        <lane id=":C_3_0" index="0" speed="3.65" length="1.44" shape="588.91,307.46,6.16 589.71,306.26,6.16" />
    </edge>
    <edge id=":C_17" function="internal">
        <lane id=":C_17_0" index="0" speed="8.94" length="14.34" shape="589.62,302.49,6.16 589.66,302.21,6.16 591.91,298.46,6.16 595.66,296.21,6.16 600.91,295.46,6.16" />
    </edge>
    <edge id=":C_18" function="internal">
        <lane id=":C_18_0" index="0" speed="3.65" length="3.23" shape="589.71,306.26,6.16 590.51,305.86,6.16 591.31,306.26,6.16 592.11,307.46,6.16" />
    </edge>
    <edge id=":C_4" function="internal">
        <lane id=":C_4_0" index="0" speed="6.51" length="9.03" shape="600.91,301.86,6.16 598.46,302.21,6.16 596.71,303.26,6.16 595.66,305.01,6.16 595.31,307.46,6.16" />
    </edge>
    <edge id=":C_5" function="internal">
        <lane id=":C_5_0" index="0" speed="8.94" length="17.95" shape="600.91,301.86,6.16 595.09,301.36,6.16 590.63,300.26,6.16 586.91,299.16,6.16 583.31,298.66,6.16" />
    </edge>
    <edge id=":C_6" function="internal">
        <lane id=":C_6_0" index="0" speed="8.94" length="8.24" shape="600.91,298.66,6.16 595.66,297.91,6.16 593.15,296.40,6.16" />
    </edge>
    <edge id=":C_7" function="internal">
        <lane id=":C_7_0" index="0" speed="3.65" length="1.44" shape="600.91,298.66,6.16 599.71,297.86,6.16" />
    </edge>
    <edge id=":C_19" function="internal">
        <lane id=":C_19_0" index="0" speed="8.94" length="11.12" shape="593.15,296.40,6.16 591.91,295.66,6.16 589.66,291.91,6.16 588.91,286.66,6.16" />
    </edge>
    <edge id=":C_20" function="internal">
        <lane id=":C_20_0" index="0" speed="3.65" length="3.23" shape="599.71,297.86,6.16 599.31,297.06,6.16 599.71,296.26,6.16 600.91,295.46,6.16" />
    </edge>
    <edge id=":C_8" function="internal">
        <lane id=":C_8_0" index="0" speed="7.33" length="11.73" shape="595.31,286.66,6.16 595.66,290.51,6.16 596.71,293.26,6.16 598.46,294.91,6.16 600.91,295.46,6.16" />
    </edge>
    <edge id=":C_9" function="internal">
        <lane id=":C_9_0" index="0" speed="8.94" length="20.80" shape="595.31,286.66,6.16 595.31,307.46,6.16" />
        <lane id=":C_9_1" index="1" speed="8.94" length="20.80" shape="592.11,286.66,6.16 592.11,307.46,6.16" />
    </edge>
    <edge id=":C_11" function="internal">
        <lane id=":C_11_0" index="0" speed="8.67" length="5.56" shape="592.11,286.66,6.16 591.56,291.91,6.16 591.45,292.16,6.16" />
    </edge>
    <edge id=":C_12" function="internal">
        <lane id=":C_12_0" index="0" speed="3.65" length="1.44" shape="592.11,286.66,6.16 591.31,287.86,6.16" />
    </edge>
    <edge id=":C_21" function="internal">
        <lane id=":C_21_0" index="0" speed="8.67" length="11.29" shape="591.45,292.16,6.16 589.91,295.66,6.16 587.16,297.91,6.16 583.31,298.66,6.16" />
    </edge>
    <edge id=":C_22" function="internal">
        <lane id=":C_22_0" index="0" speed="3.65" length="3.23" shape="591.31,287.86,6.16 590.51,288.26,6.16 589.71,287.86,6.16 588.91,286.66,6.16" />
    </edge>
    <edge id=":C_13" function="internal">
        <lane id=":C_13_0" index="0" speed="6.51" length="9.03" shape="583.31,292.26,6.16 585.76,291.91,6.16 587.51,290.86,6.16 588.56,289.11,6.16 588.91,286.66,6.16" />
    </edge>
    <edge id=":C_14" function="internal">
        <lane id=":C_14_0" index="0" speed="8.94" length="17.95" shape="583.31,292.26,6.16 589.13,292.76,6.16 593.59,293.86,6.16 597.31,294.96,6.16 600.91,295.46,6.16" />
    </edge>
    <edge id=":C_15" function="internal">
        <lane id=":C_15_0" index="0" speed="8.67" length="4.68" shape="583.31,295.46,6.16 587.16,296.21,6.16 587.75,296.69,6.16" />
    </edge>
    <edge id=":C_16" function="internal">
        <lane id=":C_16_0" index="0" speed="3.65" length="1.44" shape="583.31,295.46,6.16 584.51,296.26,6.16" />
    </edge>
    <edge id=":C_23" function="internal">
        <lane id=":C_23_0" index="0" speed="8.67" length="12.17" shape="587.75,296.69,6.16 589.91,298.46,6.16 591.56,302.21,6.16 592.11,307.46,6.16" />
    </edge>
    <edge id=":C_24" function="internal">
        <lane id=":C_24_0" index="0" speed="3.65" length="3.23" shape="584.51,296.26,6.16 584.91,297.06,6.16 584.51,297.86,6.16 583.31,298.66,6.16" />
    </edge>
    <edge id=":CA_0" function="internal">
        <lane id=":CA_0_0" index="0" speed="3.65" length="4.67" shape="887.57,295.46,6.16 888.77,296.26,6.16 889.17,297.06,6.16 888.77,297.86,6.16 887.57,298.66,6.16" />
    </edge>
    <edge id=":CB_0" function="internal">
        <lane id=":CB_0_0" index="0" speed="3.65" length="4.67" shape="588.91,-0.00,6.16 589.71,-1.20,6.16 590.51,-1.60,6.16 591.31,-1.20,6.16 592.11,-0.00,6.16" />
    </edge>
    <edge id=":CC_0" function="internal">
        <lane id=":CC_0_0" index="0" speed="3.65" length="4.67" shape="293.45,298.66,6.16 292.25,297.86,6.16 291.85,297.06,6.16 292.25,296.26,6.16 293.45,295.46,6.16" />
    </edge>
    <edge id=":D_0" function="internal">
        <lane id=":D_0_0" index="0" speed="6.51" length="9.03" shape="287.26,607.72,-0.36 286.91,605.27,-0.36 285.86,603.52,-0.36 284.11,602.47,-0.36 281.66,602.12,-0.36" />
    </edge>
    <edge id=":D_1" function="internal">
        <lane id=":D_1_0" index="0" speed="13.41" length="27.20" shape="287.26,607.72,-0.36 287.26,580.52,-0.36" />
        <lane id=":D_1_1" index="1" speed="13.41" length="27.20" shape="290.46,607.72,-0.36 290.46,580.52,-0.36" />
        <lane id=":D_1_2" index="2" speed="13.41" length="27.20" shape="293.66,607.72,-0.36 293.66,580.52,-0.36" />
    </edge>
    <edge id=":D_4" function="internal">
        <lane id=":D_4_0" index="0" speed="10.36" length="5.01" shape="293.66,607.72,-0.36 294.36,602.75,-0.36" />
    </edge>
    <edge id=":D_5" function="internal">
        <lane id=":D_5_0" index="0" speed="3.65" length="1.44" shape="293.66,607.72,-0.36 294.46,606.52,-0.36" />
    </edge>
    <edge id=":D_24" function="internal">
        <lane id=":D_24_0" index="0" speed="10.36" length="19.50" shape="294.36,602.75,-0.36 294.61,601.07,-0.36 297.46,596.32,-0.35 302.21,593.47,-0.35 308.86,592.52,-0.34" />
    </edge>
    <edge id=":D_25" function="internal">
        <lane id=":D_25_0" index="0" speed="3.65" length="3.23" shape="294.46,606.52,-0.36 295.26,606.12,-0.36 296.06,606.52,-0.36 296.86,607.72,-0.36" />
    </edge>
    <edge id=":D_6" function="internal">
        <lane id=":D_6_0" index="0" speed="6.51" length="9.03" shape="308.86,602.12,-0.34 306.41,602.47,-0.35 304.66,603.52,-0.35 303.61,605.27,-0.36 303.26,607.72,-0.36" />
    </edge>
    <edge id=":D_7" function="internal">
        <lane id=":D_7_0" index="0" speed="13.41" length="27.20" shape="308.86,602.12,-0.34 281.66,602.12,-0.36" />
        <lane id=":D_7_1" index="1" speed="13.41" length="27.20" shape="308.86,598.92,-0.34 281.66,598.92,-0.36" />
        <lane id=":D_7_2" index="2" speed="13.41" length="27.20" shape="308.86,595.72,-0.34 281.66,595.72,-0.36" />
    </edge>
    <edge id=":D_10" function="internal">
        <lane id=":D_10_0" index="0" speed="10.36" length="5.01" shape="308.86,595.72,-0.34 303.89,595.01,-0.35" />
    </edge>
    <edge id=":D_11" function="internal">
        <lane id=":D_11_0" index="0" speed="3.65" length="1.44" shape="308.86,595.72,-0.34 307.66,594.92,-0.34" />
    </edge>
    <edge id=":D_26" function="internal">
        <lane id=":D_26_0" index="0" speed="10.36" length="19.50" shape="303.89,595.01,-0.35 302.21,594.77,-0.35 297.46,591.92,-0.35 294.61,587.17,-0.36 293.66,580.52,-0.36" />
    </edge>
    <edge id=":D_27" function="internal">
        <lane id=":D_27_0" index="0" speed="3.65" length="3.23" shape="307.66,594.92,-0.34 307.26,594.12,-0.34 307.66,593.32,-0.34 308.86,592.52,-0.34" />
    </edge>
    <edge id=":D_12" function="internal">
        <lane id=":D_12_0" index="0" speed="6.51" length="9.03" shape="303.26,580.52,-0.36 303.61,582.97,-0.36 304.66,584.72,-0.35 306.41,585.77,-0.35 308.86,586.12,-0.34" />
    </edge>
    <edge id=":D_13" function="internal">
        <lane id=":D_13_0" index="0" speed="13.41" length="27.20" shape="303.26,580.52,-0.36 303.26,607.72,-0.36" />
        <lane id=":D_13_1" index="1" speed="13.41" length="27.20" shape="300.06,580.52,-0.36 300.06,607.72,-0.36" />
        <lane id=":D_13_2" index="2" speed="13.41" length="27.20" shape="296.86,580.52,-0.36 296.86,607.72,-0.36" />
    </edge>
    <edge id=":D_16" function="internal">
        <lane id=":D_16_0" index="0" speed="10.36" length="5.01" shape="296.86,580.52,-0.36 296.15,585.48,-0.36" />
    </edge>
    <edge id=":D_17" function="internal">
        <lane id=":D_17_0" index="0" speed="3.65" length="1.44" shape="296.86,580.52,-0.36 296.06,581.72,-0.36" />
    </edge>
    <edge id=":D_28" function="internal">
        <lane id=":D_28_0" index="0" speed="10.36" length="19.50" shape="296.15,585.48,-0.36 295.91,587.17,-0.36 293.06,591.92,-0.36 288.31,594.77,-0.36 281.66,595.72,-0.36" />
    </edge>
    <edge id=":D_29" function="internal">
        <lane id=":D_29_0" index="0" speed="3.65" length="3.23" shape="296.06,581.72,-0.36 295.26,582.12,-0.36 294.46,581.72,-0.36 293.66,580.52,-0.36" />
    </edge>
    <edge id=":D_18" function="internal">
        <lane id=":D_18_0" index="0" speed="6.51" length="9.03" shape="281.66,586.12,-0.36 284.11,585.77,-0.36 285.86,584.72,-0.36 286.91,582.97,-0.36 287.26,580.52,-0.36" />
    </edge>
    <edge id=":D_19" function="internal">
        <lane id=":D_19_0" index="0" speed="13.41" length="27.20" shape="281.66,586.12,-0.36 308.86,586.12,-0.34" />
        <lane id=":D_19_1" index="1" speed="13.41" length="27.20" shape="281.66,589.32,-0.36 308.86,589.32,-0.34" />
        <lane id=":D_19_2" index="2" speed="13.41" length="27.20" shape="281.66,592.52,-0.36 308.86,592.52,-0.34" />
    </edge>
    <edge id=":D_22" function="internal">
        <lane id=":D_22_0" index="0" speed="10.36" length="5.01" shape="281.66,592.52,-0.36 286.62,593.22,-0.36" />
    </edge>
    <edge id=":D_23" function="internal">
        <lane id=":D_23_0" index="0" speed="3.65" length="1.44" shape="281.66,592.52,-0.36 282.86,593.32,-0.36" />
    </edge>
    <edge id=":D_30" function="internal">
        <lane id=":D_30_0" index="0" speed="10.36" length="19.50" shape="286.62,593.22,-0.36 288.31,593.47,-0.36 293.06,596.32,-0.36 295.91,601.07,-0.36 296.86,607.72,-0.36" />
    </edge>
    <edge id=":D_31" function="internal">
        <lane id=":D_31_0" index="0" speed="3.65" length="3.23" shape="282.86,593.32,-0.36 283.26,594.12,-0.36 282.86,594.92,-0.36 281.66,595.72,-0.36" />
    </edge>
    <edge id=":DA_0" function="internal">
        <lane id=":DA_0_0" index="0" speed="3.65" length="4.67" shape="293.66,298.86,-0.36 294.46,297.66,-0.36 295.26,297.26,-0.36 296.06,297.66,-0.36 296.86,298.86,-0.36" />
    </edge>
    <edge id=":DB_0" function="internal">
        <lane id=":DB_0_0" index="0" speed="3.65" length="4.67" shape="-0.00,595.72,-0.36 -1.20,594.92,-0.36 -1.60,594.12,-0.36 -1.20,593.32,-0.36 0.00,592.52,-0.36" />
    </edge>
    <edge id=":DC_0" function="internal">
        <lane id=":DC_0_0" index="0" speed="3.65" length="4.67" shape="296.86,889.37,-0.36 296.06,890.57,-0.36 295.26,890.97,-0.36 294.46,890.57,-0.36 293.66,889.37,-0.36" />
    </edge>
    <edge id=":TL_0" function="internal">
        <lane id=":TL_0_0" index="0" speed="7.33" length="11.73" shape="585.71,610.92 585.36,607.07,-0.00 584.31,604.32,-0.01 582.56,602.67,-0.01 580.11,602.12,-0.01" />
    </edge>
    <edge id=":TL_1" function="internal">
        <lane id=":TL_1_0" index="0" speed="8.94" length="30.58" shape="585.71,610.92 586.21,602.65 587.31,593.84 588.41,585.97 588.91,580.52" />
    </edge>
    <edge id=":TL_2" function="internal">
        <lane id=":TL_2_0" index="0" speed="10.41" length="11.30" shape="588.91,610.92 589.66,602.87,-0.01 590.83,599.87,-0.02" />
    </edge>
    <edge id=":TL_16" function="internal">
        <lane id=":TL_16_0" index="0" speed="10.41" length="13.43" shape="590.83,599.87,-0.02 591.91,597.12,-0.02 595.66,593.67,-0.03 600.91,592.52,-0.03" />
    </edge>
    <edge id=":TL_3" function="internal">
        <lane id=":TL_3_0" index="0" speed="7.33" length="11.73" shape="600.91,605.32,-0.03 597.06,605.67,-0.02 594.31,606.72,-0.01 592.66,608.47,-0.01 592.11,610.92" />
    </edge>
    <edge id=":TL_4" function="internal">
        <lane id=":TL_4_0" index="0" speed="13.41" length="21.04" shape="600.91,605.32,-0.03 594.70,604.82,-0.03 590.51,603.72,-0.02 586.32,602.62,-0.02 580.11,602.12,-0.01" />
        <lane id=":TL_4_1" index="1" speed="13.41" length="21.04" shape="600.91,602.12,-0.03 594.70,601.62,-0.03 590.51,600.52,-0.02 586.32,599.42,-0.02 580.11,598.92,-0.01" />
        <lane id=":TL_4_2" index="2" speed="13.41" length="21.04" shape="600.91,598.92,-0.03 594.70,598.42,-0.03 590.51,597.32,-0.02 586.32,596.22,-0.02 580.11,595.72,-0.01" />
        <lane id=":TL_4_3" index="3" speed="13.41" length="21.04" shape="600.91,595.72,-0.03 580.11,595.72,-0.01" />
    </edge>
    <edge id=":TL_8" function="internal">
        <lane id=":TL_8_0" index="0" speed="6.51" length="9.03" shape="595.31,580.52 595.66,582.97,-0.01 596.71,584.72,-0.02 598.46,585.77,-0.03 600.91,586.12,-0.03" />
    </edge>
    <edge id=":TL_9" function="internal">
        <lane id=":TL_9_0" index="0" speed="8.94" length="30.58" shape="595.31,580.52 594.81,588.78 593.71,597.59 592.61,605.46 592.11,610.92" />
    </edge>
    <edge id=":TL_10" function="internal">
        <lane id=":TL_10_0" index="0" speed="9.84" length="8.49" shape="592.11,580.52 591.36,587.17,-0.00 590.59,588.79,-0.00" />
    </edge>
    <edge id=":TL_17" function="internal">
        <lane id=":TL_17_0" index="0" speed="9.84" length="13.50" shape="590.59,588.79,-0.00 589.11,591.92,-0.01 585.36,594.77,-0.01 580.11,595.72,-0.01" />
    </edge>
    <edge id=":TL_11" function="internal">
        <lane id=":TL_11_0" index="0" speed="7.33" length="11.73" shape="580.11,586.12,-0.01 583.96,585.77,-0.01 586.71,584.72,-0.01 588.36,582.97,-0.00 588.91,580.52" />
    </edge>
    <edge id=":TL_12" function="internal">
        <lane id=":TL_12_0" index="0" speed="13.41" length="20.80" shape="580.11,586.12,-0.01 600.91,586.12,-0.03" />
        <lane id=":TL_12_1" index="1" speed="13.41" length="20.80" shape="580.11,589.32,-0.01 600.91,589.32,-0.03" />
        <lane id=":TL_12_2" index="2" speed="13.41" length="20.80" shape="580.11,592.52,-0.01 600.91,592.52,-0.03" />
    </edge>
    <edge id=":TL_15" function="internal">
        <lane id=":TL_15_0" index="0" speed="10.41" length="3.37" shape="580.11,592.52,-0.01 583.40,593.24,-0.01" />
    </edge>
    <edge id=":TL_18" function="internal">
        <lane id=":TL_18_0" index="0" speed="10.41" length="21.36" shape="583.40,593.24,-0.01 585.36,593.67,-0.01 589.11,597.12,-0.01 591.36,602.87,-0.00 592.11,610.92" />
    </edge>

    <edge id="A2AA" from="A" to="AA" priority="-1">
        <lane id="A2AA_0" index="0" speed="8.94" length="293.79" shape="580.11,899.91,-4.64 286.32,899.91,-4.64" />
    </edge>
    <edge id="A2AB" from="A" to="AB" priority="-1">
        <lane id="A2AB_0" index="0" speed="8.94" length="293.79" shape="592.11,908.71,-4.64 592.11,1202.49,-4.64" />
    </edge>
    <edge id="A2AC" from="A" to="AC" priority="-1">
        <lane id="A2AC_0" index="0" speed="8.94" length="296.99" shape="597.71,896.71,-4.64 894.70,896.71,-4.64" />
    </edge>
    <edge id="A2TL" from="A" to="TL" priority="-1">
        <lane id="A2TL_0" index="0" speed="8.94" length="277.03" shape="585.71,887.91,-4.48 585.71,610.92" />
        <lane id="A2TL_1" index="1" speed="8.94" length="277.03" shape="588.91,887.91,-4.48 588.91,610.92" />
    </edge>
    <edge id="AA2A" from="AA" to="A" priority="-1">
        <lane id="AA2A_0" index="0" speed="8.94" length="293.79" shape="286.32,893.51,-4.64 580.11,893.51,-4.64" />
        <lane id="AA2A_1" index="1" speed="8.94" length="293.79" shape="286.32,896.71,-4.64 580.11,896.71,-4.64" />
    </edge>
    <edge id="AB2A" from="AB" to="A" priority="-1">
        <lane id="AB2A_0" index="0" speed="8.94" length="293.79" shape="585.71,1202.49,-4.64 585.71,908.71,-4.64" />
        <lane id="AB2A_1" index="1" speed="8.94" length="293.79" shape="588.91,1202.49,-4.64 588.91,908.71,-4.64" />
    </edge>
    <edge id="AC2A" from="AC" to="A" priority="-1">
        <lane id="AC2A_0" index="0" speed="8.94" length="296.99" shape="894.70,903.11,-4.64 597.71,903.11,-4.64" />
        <lane id="AC2A_1" index="1" speed="8.94" length="296.99" shape="894.70,899.91,-4.64 597.71,899.91,-4.64" />
    </edge>
    <edge id="B2BA" from="B" to="BA" priority="-1">