<net xmlns:xsi="http://www.w3.org/2001/XMLSchema-instance" version="1.9" junctionCornerDetail="5" limitTurnSpeed="5.50" xsi:noNamespaceSchemaLocation="http://sumo.dlr.de/xsd/net_file.xsd">

    <location netOffset="368.91,631.87" convBoundary="0.00,0.00,853.36,883.94" origBoundary="-368.91,-631.87,484.44,252.07" projParameter="!" />

    <edge id=":A_0" function="internal">
        <lane id=":A_0_0" index="0" speed="6.51" length="9.03" shape="364.11,768.30,2.23 363.76,765.85,2.23 362.71,764.10,2.23 360.96,763.05,2.23 358.51,762.70,2.23" />
    </edge>
    <edge id=":A_1" function="internal">
        <lane id=":A_1_0" index="0" speed="13.41" length="20.80" shape="364.11,768.30,2.23 364.11,747.50,2.04" />
        <lane id=":A_1_1" index="1" speed="13.41" length="20.80" shape="367.31,768.30,2.23 367.31,747.50,2.04" />
    </edge>
    <edge id=":A_3" function="internal">
        <lane id=":A_3_0" index="0" speed="9.26" length="5.01" shape="367.31,768.30,2.23 368.02,763.34,2.23" />
    </edge>
    <edge id=":A_4" function="internal">
        <lane id=":A_4_0" index="0" speed="3.65" length="1.44" shape="367.31,768.30,2.23 368.11,767.10,2.23" />
    </edge>
    <edge id=":A_20" function="internal">
        <lane id=":A_20_0" index="0" speed="9.26" length="14.34" shape="368.02,763.34,2.23 368.06,763.05,2.23 370.31,759.30,2.23 374.06,757.05,2.23 379.31,756.30,2.23" />
    </edge>
    <edge id=":A_21" function="internal">
        <lane id=":A_21_0" index="0" speed="3.65" length="3.23" shape="368.11,767.10,2.23 368.91,766.70,2.23 369.71,767.10,2.23 370.51,768.30,2.23" />
    </edge>
    <edge id=":A_5" function="internal">
        <lane id=":A_5_0" index="0" speed="6.51" length="9.03" shape="379.31,762.70,2.23 376.86,763.05,2.23 375.11,764.10,2.23 374.06,765.85,2.23 373.71,768.30,2.23" />
    </edge>
    <edge id=":A_6" function="internal">
        <lane id=":A_6_0" index="0" speed="13.41" length="20.80" shape="379.31,762.70,2.23 358.51,762.70,2.23" />
        <lane id=":A_6_1" index="1" speed="13.41" length="20.80" shape="379.31,759.50,2.23 358.51,759.50,2.23" />
    </edge>
    <edge id=":A_8" function="internal">
        <lane id=":A_8_0" index="0" speed="9.26" length="5.01" shape="379.31,759.50,2.23 374.35,758.80,2.18" />
    </edge>
    <edge id=":A_9" function="internal">
        <lane id=":A_9_0" index="0" speed="3.65" length="1.44" shape="379.31,759.50,2.23 378.11,758.70,2.23" />
    </edge>
    <edge id=":A_22" function="internal">
        <lane id=":A_22_0" index="0" speed="9.26" length="14.34" shape="374.35,758.80,2.18 374.06,758.75,2.18 370.31,756.50,2.14 368.06,752.75,2.09 367.31,747.50,2.04" />
    </edge>
    <edge id=":A_23" function="internal">
        <lane id=":A_23_0" index="0" speed="3.65" length="3.23" shape="378.11,758.70,2.23 377.71,757.90,2.23 378.11,757.10,2.23 379.31,756.30,2.23" />
    </edge>
    <edge id=":A_10" function="internal">
        <lane id=":A_10_0" index="0" speed="6.51" length="9.03" shape="373.71,747.50,2.04 374.06,749.95,2.09 375.11,751.70,2.14 376.86,752.75,2.18 379.31,753.10,2.23" />
    </edge>
    <edge id=":A_11" function="internal">
        <lane id=":A_11_0" index="0" speed="13.41" length="20.80" shape="373.71,747.50,2.04 373.71,768.30,2.23" />
        <lane id=":A_11_1" index="1" speed="13.41" length="20.80" shape="370.51,747.50,2.04 370.51,768.30,2.23" />
    </edge>
    <edge id=":A_13" function="internal">
        <lane id=":A_13_0" index="0" speed="9.26" length="5.01" shape="370.51,747.50,2.04 369.81,752.47,2.09" />
    </edge>
    <edge id=":A_14" function="internal">
        <lane id=":A_14_0" index="0" speed="3.65" length="1.44" shape="370.51,747.50,2.04 369.71,748.70,2.04" />
    </edge>
    <edge id=":A_24" function="internal">
        <lane id=":A_24_0" index="0" speed="9.26" length="14.34" shape="369.81,752.47,2.09 369.76,752.75,2.09 367.51,756.50,2.14 363.76,758.75,2.18 358.51,759.50,2.23" />
    </edge>
    <edge id=":A_25" function="internal">
        <lane id=":A_25_0" index="0" speed="3.65" length="3.23" shape="369.71,748.70,2.04 368.91,749.10,2.04 368.11,748.70,2.04 367.31,747.50,2.04" />
    </edge>
    <edge id=":A_15" function="internal">
        <lane id=":A_15_0" index="0" speed="6.51" length="9.03" shape="358.51,753.10,2.23 360.96,752.75,2.18 362.71,751.70,2.14 363.76,749.95,2.09 364.11,747.50,2.04" />
    </edge>
    <edge id=":A_16" function="internal">
        <lane id=":A_16_0" index="0" speed="13.41" length="20.80" shape="358.51,753.10,2.23 379.31,753.10,2.23" />
        <lane id=":A_16_1" index="1" speed="13.41" length="20.80" shape="358.51,756.30,2.23 379.31,756.30,2.23" />
    </edge>
    <edge id=":A_18" function="internal">
        <lane id=":A_18_0" index="0" speed="9.26" length="5.01" shape="358.51,756.30,2.23 363.48,757.01,2.23" />
    </edge>
    <edge id=":A_19" function="internal">
        <lane id=":A_19_0" index="0" speed="3.65" length="1.44" shape="358.51,756.30,2.23 359.71,757.10,2.23" />
    </edge>
    <edge id=":A_26" function="internal">
        <lane id=":A_26_0" index="0" speed="9.26" length="14.34" shape="363.48,757.01,2.23 363.76,757.05,2.23 367.51,759.30,2.23 369.76,763.05,2.23 370.51,768.30,2.23" />
    </edge>
    <edge id=":A_27" function="internal">
        <lane id=":A_27_0" index="0" speed="3.65" length="3.23" shape="359.71,757.10,2.23 360.11,757.90,2.23 359.71,758.70,2.23 358.51,759.50,2.23" />
    </edge>
    <edge id=":AA_0" function="internal">
        <lane id=":AA_0_0" index="0" speed="3.65" length="4.67" shape="242.88,759.50,2.23 241.68,758.70,2.23 241.28,757.90,2.23 241.68,757.10,2.23 242.88,756.30,2.23" />
    </edge>
    <edge id=":AB_0" function="internal">
        <lane id=":AB_0_0" index="0" speed="3.65" length="4.67" shape="370.51,883.94,2.23 369.71,885.14,2.23 368.91,885.54,2.23 368.11,885.14,2.23 367.31,883.94,2.23" />
    </edge>
    <edge id=":AC_0" function="internal">
        <lane id=":AC_0_0" index="0" speed="3.65" length="4.67" shape="494.95,756.30,2.23 496.15,757.10,2.23 496.55,757.90,2.23 496.15,758.70,2.23 494.95,759.50,2.23" />
    </edge>
    <edge id=":B_0" function="internal">
        <lane id=":B_0_0" index="0" speed="6.51" length="9.03" shape="609.54,639.07,-1.70 609.19,636.62,-1.68 608.14,634.87,-1.67 606.39,633.82,-1.66 603.94,633.47,-1.65" />
    </edge>
    <edge id=":B_1" function="internal">
        <lane id=":B_1_0" index="0" speed="8.94" length="14.40" shape="609.54,639.07,-1.70 609.54,624.67,-1.70" />
    </edge>
    <edge id=":B_2" function="internal">
        <lane id=":B_2_0" index="0" speed="8.00" length="4.07" shape="609.54,639.07,-1.70 610.09,635.22,-1.70 610.18,635.07,-1.70" />
    </edge>
    <edge id=":B_3" function="internal">
        <lane id=":B_3_0" index="0" speed="3.65" length="1.44" shape="609.54,639.07,-1.70 610.34,637.87,-1.70" />
    </edge>
    <edge id=":B_16" function="internal">
        <lane id=":B_16_0" index="0" speed="8.00" length="10.13" shape="610.18,635.07,-1.70 611.74,632.47,-1.70 614.49,630.82,-1.70 618.34,630.27,-1.70" />
    </edge>
    <edge id=":B_17" function="internal">
        <lane id=":B_17_0" index="0" speed="3.65" length="3.23" shape="610.34,637.87,-1.70 611.14,637.47,-1.70 611.94,637.87,-1.70 612.74,639.07,-1.70" />
    </edge>
    <edge id=":B_4" function="internal">
        <lane id=":B_4_0" index="0" speed="6.51" length="9.03" shape="618.34,633.47,-1.70 615.89,633.82,-1.70 614.14,634.87,-1.70 613.09,636.62,-1.70 612.74,639.07,-1.70" />
    </edge>
    <edge id=":B_5" function="internal">
        <lane id=":B_5_0" index="0" speed="8.94" length="14.40" shape="618.34,633.47,-1.70 603.94,633.47,-1.65" />
    </edge>
    <edge id=":B_6" function="internal">
        <lane id=":B_6_0" index="0" speed="8.00" length="4.07" shape="618.34,633.47,-1.70 614.49,632.92,-1.70 614.33,632.83,-1.70" />
    </edge>
    <edge id=":B_7" function="internal">
        <lane id=":B_7_0" index="0" speed="3.65" length="1.44" shape="618.34,633.47,-1.70 617.14,632.67,-1.70" />
    </edge>
    <edge id=":B_18" function="internal">
        <lane id=":B_18_0" index="0" speed="8.00" length="10.13" shape="614.33,632.83,-1.70 611.74,631.27,-1.70 610.09,628.52,-1.70 609.54,624.67,-1.70" />
    </edge>
    <edge id=":B_19" function="internal">
        <lane id=":B_19_0" index="0" speed="3.65" length="3.23" shape="617.14,632.67,-1.70 616.74,631.87,-1.70 617.14,631.07,-1.70 618.34,630.27,-1.70" />
    </edge>
    <edge id=":B_8" function="internal">
        <lane id=":B_8_0" index="0" speed="6.51" length="9.03" shape="612.74,624.67,-1.70 613.09,627.12,-1.70 614.14,628.87,-1.70 615.89,629.92,-1.70 618.34,630.27,-1.70" />
    </edge>
    <edge id=":B_9" function="internal">
        <lane id=":B_9_0" index="0" speed="8.94" length="14.40" shape="612.74,624.67,-1.70 612.74,639.07,-1.70" />
    </edge>
    <edge id=":B_10" function="internal">
        <lane id=":B_10_0" index="0" speed="8.00" length="4.07" shape="612.74,624.67,-1.70 612.19,628.52,-1.68 612.09,628.67,-1.68" />
    </edge>
    <edge id=":B_11" function="internal">
        <lane id=":B_11_0" index="0" speed="3.65" length="1.44" shape="612.74,624.67,-1.70 611.94,625.87,-1.70" />
    </edge>
    <edge id=":B_20" function="internal">
        <lane id=":B_20_0" index="0" speed="8.00" length="10.13" shape="612.09,628.67,-1.68 610.54,631.27,-1.67 607.79,632.92,-1.66 603.94,633.47,-1.65" />
    </edge>
    <edge id=":B_21" function="internal">
        <lane id=":B_21_0" index="0" speed="3.65" length="3.23" shape="611.94,625.87,-1.70 611.14,626.27,-1.70 610.34,625.87,-1.70 609.54,624.67,-1.70" />
    </edge>
    <edge id=":B_12" function="internal">
        <lane id=":B_12_0" index="0" speed="6.51" length="9.03" shape="603.94,630.27,-1.65 606.39,629.92,-1.66 608.14,628.87,-1.67 609.19,627.12,-1.68 609.54,624.67,-1.70" />
    </edge>
    <edge id=":B_13" function="internal">
        <lane id=":B_13_0" index="0" speed="8.94" length="14.40" shape="603.94,630.27,-1.65 618.34,630.27,-1.70" />
    </edge>
    <edge id=":B_14" function="internal">
        <lane id=":B_14_0" index="0" speed="8.00" length="4.07" shape="603.94,630.27,-1.65 607.79,630.82,-1.66 607.94,630.91,-1.66" />
    </edge>
    <edge id=":B_15" function="internal">
        <lane id=":B_15_0" index="0" speed="3.65" length="1.44" shape="603.94,630.27,-1.65 605.14,631.07,-1.65" />
    </edge>
    <edge id=":B_22" function="internal">
        <lane id=":B_22_0" index="0" speed="8.00" length="10.13" shape="607.94,630.91,-1.66 610.54,632.47,-1.67 612.19,635.22,-1.68 612.74,639.07,-1.70" />
    </edge>
    <edge id=":B_23" function="internal">
        <lane id=":B_23_0" index="0" speed="3.65" length="3.23" shape="605.14,631.07,-1.65 605.54,631.87,-1.65 605.14,632.67,-1.65 603.94,633.47,-1.65" />
    </edge>
    <edge id=":BA_0" function="internal">
        <lane id=":BA_0_0" index="0" speed="3.65" length="4.67" shape="612.74,874.09,-1.70 611.94,875.29,-1.70 611.14,875.69,-1.70 610.34,875.29,-1.70 609.54,874.09,-1.70" />
    </edge>
    <edge id=":BB_0" function="internal">
        <lane id=":BB_0_0" index="0" speed="3.65" length="4.67" shape="853.36,630.27,-1.70 854.56,631.07,-1.70 854.96,631.87,-1.70 854.56,632.67,-1.70 853.36,633.47,-1.70" />
    </edge>
    <edge id=":BC_0" function="internal">
        <lane id=":BC_0_0" index="0" speed="3.65" length="4.67" shape="609.54,389.65,-1.70 610.34,388.45,-1.70 611.14,388.05,-1.70 611.94,388.45,-1.70 612.74,389.65,-1.70" />
    </edge>
    <edge id=":C_0" function="internal">
        <lane id=":C_0_0" index="0" speed="6.51" length="9.03" shape="364.11,326.34 363.76,323.89 362.71,322.14 360.96,321.09 358.51,320.74" />
    </edge>
    <edge id=":C_1" function="internal">
        <lane id=":C_1_0" index="0" speed="17.88" length="20.80" shape="364.11,326.34 364.11,305.54" />
        <lane id=":C_1_1" index="1" speed="17.88" length="20.80" shape="367.31,326.34 367.31,305.54" />
    </edge>
    <edge id=":C_3" function="internal">
        <lane id=":C_3_0" index="0" speed="9.26" length="5.01" shape="367.31,326.34 368.02,321.37" />
    </edge>
    <edge id=":C_4" function="internal">
        <lane id=":C_4_0" index="0" speed="3.65" length="1.44" shape="367.31,326.34 368.11,325.14" />
    </edge>
    <edge id=":C_20" function="internal">
        <lane id=":C_20_0" index="0" speed="9.26" length="14.34" shape="368.02,321.37 368.06,321.09 370.31,317.34 374.06,315.09 379.31,314.34" />
    </edge>
    <edge id=":C_21" function="internal">
        <lane id=":C_21_0" index="0" speed="3.65" length="3.23" shape="368.11,325.14 368.91,324.74 369.71,325.14 370.51,326.34" />
    </edge>
    <edge id=":C_5" function="internal">
        <lane id=":C_5_0" index="0" speed="6.51" length="9.03" shape="379.31,320.74 376.86,321.09 375.11,322.14 374.06,323.89 373.71,326.34" />
    </edge>
    <edge id=":C_6" function="internal">
        <lane id=":C_6_0" index="0" speed="17.88" length="20.80" shape="379.31,320.74 358.51,320.74" />
        <lane id=":C_6_1" index="1" speed="17.88" length="20.80" shape="379.31,317.54 358.51,317.54" />
    </edge>
    <edge id=":C_8" function="internal">
        <lane id=":C_8_0" index="0" speed="9.26" length="5.01" shape="379.31,317.54 374.35,316.83" />
    </edge>
    <edge id=":C_9" function="internal">
        <lane id=":C_9_0" index="0" speed="3.65" length="1.44" shape="379.31,317.54 378.11,316.74" />
    </edge>
    <edge id=":C_22" function="internal">
        <lane id=":C_22_0" index="0" speed="9.26" length="14.34" shape="374.35,316.83 374.06,316.79 370.31,314.54 368.06,310.79 367.31,305.54" />
    </edge>
    <edge id=":C_23" function="internal">
        <lane id=":C_23_0" index="0" speed="3.65" length="3.23" shape="378.11,316.74 377.71,315.94 378.11,315.14 379.31,314.34" />
    </edge>
    <edge id=":C_10" function="internal">
        <lane id=":C_10_0" index="0" speed="6.51" length="9.03" shape="373.71,305.54 374.06,307.99 375.11,309.74 376.86,310.79 379.31,311.14" />
    </edge>
    <edge id=":C_11" function="internal">
        <lane id=":C_11_0" index="0" speed="17.88" length="20.80" shape="373.71,305.54 373.71,326.34" />
        <lane id=":C_11_1" index="1" speed="17.88" length="20.80" shape="370.51,305.54 370.51,326.34" />
    </edge>
    <edge id=":C_13" function="internal">
        <lane id=":C_13_0" index="0" speed="9.26" length="5.01" shape="370.51,305.54 369.81,310.50" />
    </edge>
    <edge id=":C_14" function="internal">
        <lane id=":C_14_0" index="0" speed="3.65" length="1.44" shape="370.51,305.54 369.71,306.74" />
    </edge>
    <edge id=":C_24" function="internal">
        <lane id=":C_24_0" index="0" speed="9.26" length="14.34" shape="369.81,310.50 369.76,310.79 367.51,314.54 363.76,316.79 358.51,317.54" />
    </edge>
    <edge id=":C_25" function="internal">
        <lane id=":C_25_0" index="0" speed="3.65" length="3.23" shape="369.71,306.74 368.91,307.14 368.11,306.74 367.31,305.54" />
    </edge>
    <edge id=":C_15" function="internal">
        <lane id=":C_15_0" index="0" speed="6.51" length="9.03" shape="358.51,311.14 360.96,310.79 362.71,309.74 363.76,307.99 364.11,305.54" />
    </edge>
    <edge id=":C_16" function="internal">
        <lane id=":C_16_0" index="0" speed="17.88" length="20.80" shape="358.51,311.14 379.31,311.14" />
        <lane id=":C_16_1" index="1" speed="17.88" length="20.80" shape="358.51,314.34 379.31,314.34" />
    </edge>
    <edge id=":C_18" function="internal">
        <lane id=":C_18_0" index="0" speed="9.26" length="5.01" shape="358.51,314.34 363.48,315.04" />
    </edge>
    <edge id=":C_19" function="internal">
        <lane id=":C_19_0" index="0" speed="3.65" length="1.44" shape="358.51,314.34 359.71,315.14" />
    </edge>
    <edge id=":C_26" function="internal">
        <lane id=":C_26_0" index="0" speed="9.26" length="14.34" shape="363.48,315.04 363.76,315.09 367.51,317.34 369.76,321.09 370.51,326.34" />
    </edge>
    <edge id=":C_27" function="internal">
        <lane id=":C_27_0" index="0" speed="3.65" length="3.23" shape="359.71,315.14 360.11,315.94 359.71,316.74 358.51,317.54" />
    </edge>
    <edge id=":CA_0" function="internal">
        <lane id=":CA_0_0" index="0" speed="3.65" length="4.67" shape="684.85,314.34 686.05,315.14 686.45,315.94 686.05,316.74 684.85,317.54" />
    </edge>
    <edge id=":CB_0" function="internal">
        <lane id=":CB_0_0" index="0" speed="3.65" length="4.67" shape="367.31,-0.00 368.11,-1.20 368.91,-1.60 369.71,-1.20 370.51,0.00" />
    </edge>
    <edge id=":CC_0" function="internal">
        <lane id=":CC_0_0" index="0" speed="3.65" length="4.67" shape="52.98,317.54 51.78,316.74 51.38,315.94 51.78,315.14 52.98,314.34" />
    </edge>
    <edge id=":D_0" function="internal">
        <lane id=":D_0_0" index="0" speed="6.51" length="9.03" shape="182.86,639.07,-0.45 182.51,636.62,-0.45 181.46,634.87,-0.45 179.71,633.82,-0.45 177.26,633.47,-0.45" />
    </edge>
    <edge id=":D_1" function="internal">
        <lane id=":D_1_0" index="0" speed="8.94" length="14.40" shape="182.86,639.07,-0.45 182.86,624.67,-0.45" />
    </edge>
    <edge id=":D_2" function="internal">
        <lane id=":D_2_0" index="0" speed="8.00" length="4.07" shape="182.86,639.07,-0.45 183.41,635.22,-0.44 183.50,635.07,-0.44" />
    </edge>
    <edge id=":D_3" function="internal">
        <lane id=":D_3_0" index="0" speed="3.65" length="1.44" shape="182.86,639.07,-0.45 183.66,637.87,-0.45" />
    </edge>
    <edge id=":D_16" function="internal">
        <lane id=":D_16_0" index="0" speed="8.00" length="10.13" shape="183.50,635.07,-0.44 185.06,632.47,-0.44 187.81,630.82,-0.44 191.66,630.27,-0.43" />
    </edge>
    <edge id=":D_17" function="internal">
        <lane id=":D_17_0" index="0" speed="3.65" length="3.23" shape="183.66,637.87,-0.45 184.46,637.47,-0.45 185.26,637.87,-0.45 186.06,639.07,-0.45" />
    </edge>
    <edge id=":D_4" function="internal">
        <lane id=":D_4_0" index="0" speed="6.51" length="9.03" shape="191.66,633.47,-0.43 189.21,633.82,-0.44 187.46,634.87,-0.44 186.41,636.62,-0.44 186.06,639.07,-0.45" />
    </edge>
    <edge id=":D_5" function="internal">
        <lane id=":D_5_0" index="0" speed="8.94" length="14.40" shape="191.66,633.47,-0.43 177.26,633.47,-0.45" />
    </edge>
    <edge id=":D_6" function="internal">
        <lane id=":D_6_0" index="0" speed="8.00" length="4.07" shape="191.66,633.47,-0.43 187.81,632.92,-0.44 187.66,632.83,-0.44" />
    </edge>
    <edge id=":D_7" function="internal">
        <lane id=":D_7_0" index="0" speed="3.65" length="1.44" shape="191.66,633.47,-0.43 190.46,632.67,-0.43" />
    </edge>
    <edge id=":D_18" function="internal">
        <lane id=":D_18_0" index="0" speed="8.00" length="10.13" shape="187.66,632.83,-0.44 185.06,631.27,-0.44 183.41,628.52,-0.44 182.86,624.67,-0.45" />
    </edge>
    <edge id=":D_19" function="internal">
        <lane id=":D_19_0" index="0" speed="3.65" length="3.23" shape="190.46,632.67,-0.43 190.06,631.87,-0.43 190.46,631.07,-0.43 191.66,630.27,-0.43" />
    </edge>
    <edge id=":D_8" function="internal">
        <lane id=":D_8_0" index="0" speed="6.51" length="9.03" shape="186.06,624.67,-0.45 186.41,627.12,-0.44 187.46,628.87,-0.44 189.21,629.92,-0.44 191.66,630.27,-0.43" />
    </edge>
    <edge id=":D_9" function="internal">
        <lane id=":D_9_0" index="0" speed="8.94" length="14.40" shape="186.06,624.67,-0.45 186.06,639.07,-0.45" />
    </edge>
    <edge id=":D_10" function="internal">
        <lane id=":D_10_0" index="0" speed="8.00" length="4.07" shape="186.06,624.67,-0.45 185.51,628.52,-0.45 185.42,628.67,-0.45" />
    </edge>
    <edge id=":D_11" function="internal">
        <lane id=":D_11_0" index="0" speed="3.65" length="1.44" shape="186.06,624.67,-0.45 185.26,625.87,-0.45" />
    </edge>
    <edge id=":D_20" function="internal">
        <lane id=":D_20_0" index="0" speed="8.00" length="10.13" shape="185.42,628.67,-0.45 183.86,631.27,-0.45 181.11,632.92,-0.45 177.26,633.47,-0.45" />
    </edge>
    <edge id=":D_21" function="internal">
        <lane id=":D_21_0" index="0" speed="3.65" length="3.23" shape="185.26,625.87,-0.45 184.46,626.27,-0.45 183.66,625.87,-0.45 182.86,624.67,-0.45" />
    </edge>
    <edge id=":D_12" function="internal">
        <lane id=":D_12_0" index="0" speed="6.51" length="9.03" shape="177.26,630.27,-0.45 179.71,629.92,-0.45 181.46,628.87,-0.45 182.51,627.12,-0.45 182.86,624.67,-0.45" />
    </edge>
    <edge id=":D_13" function="internal">
        <lane id=":D_13_0" index="0" speed="8.94" length="14.40" shape="177.26,630.27,-0.45 191.66,630.27,-0.43" />
    </edge>
    <edge id=":D_14" function="internal">
        <lane id=":D_14_0" index="0" speed="8.00" length="4.07" shape="177.26,630.27,-0.45 181.11,630.82,-0.45 181.26,630.91,-0.45" />
    </edge>
    <edge id=":D_15" function="internal">
        <lane id=":D_15_0" index="0" speed="3.65" length="1.44" shape="177.26,630.27,-0.45 178.46,631.07,-0.45" />
    </edge>
    <edge id=":D_22" function="internal">
        <lane id=":D_22_0" index="0" speed="8.00" length="10.13" shape="181.26,630.91,-0.45 183.86,632.47,-0.45 185.51,635.22,-0.45 186.06,639.07,-0.45" />
    </edge>
    <edge id=":D_23" function="internal">
        <lane id=":D_23_0" index="0" speed="3.65" length="3.23" shape="178.46,631.07,-0.45 178.86,631.87,-0.45 178.46,632.67,-0.45 177.26,633.47,-0.45" />
    </edge>
    <edge id=":DA_0" function="internal">
        <lane id=":DA_0_0" index="0" speed="3.65" length="4.67" shape="182.86,447.41,-0.45 183.66,446.21,-0.45 184.46,445.81,-0.45 185.26,446.21,-0.45 186.06,447.41,-0.45" />
    </edge>
    <edge id=":DB_0" function="internal">
        <lane id=":DB_0_0" index="0" speed="3.65" length="4.67" shape="-0.00,633.47,-0.45 -1.20,632.67,-0.45 -1.60,631.87,-0.45 -1.20,631.07,-0.45 -0.00,630.27,-0.45" />
    </edge>
    <edge id=":DC_0" function="internal">
        <lane id=":DC_0_0" index="0" speed="3.65" length="4.67" shape="186.06,816.33,-0.45 185.26,817.53,-0.45 184.46,817.93,-0.45 183.66,817.53,-0.45 182.86,816.33,-0.45" />
    </edge>
    <edge id=":TL_0" function="internal">
        <lane id=":TL_0_0" index="0" speed="6.51" length="9.03" shape="364.11,639.07,0.13 363.76,636.62,0.09 362.71,634.87,0.05 360.96,633.82,0.02 358.51,633.47,-0.03" />
    </edge>
    <edge id=":TL_1" function="internal">
        <lane id=":TL_1_0" index="0" speed="15.65" length="14.40" shape="364.11,639.07,0.13 364.11,624.67" />
        <lane id=":TL_1_1" index="1" speed="15.65" length="14.40" shape="367.31,639.07,0.13 367.31,624.67" />
    </edge>
    <edge id=":TL_3" function="internal">
        <lane id=":TL_3_0" index="0" speed="8.67" length="3.71" shape="367.31,639.07,0.13 368.02,635.43,0.08" />
    </edge>
    <edge id=":TL_11" function="internal">
        <lane id=":TL_11_0" index="0" speed="8.67" length="13.14" shape="368.02,635.43,0.08 368.06,635.22,0.08 370.31,632.47,0.04 374.06,630.82,-0.01 379.31,630.27,-0.07" />
    </edge>
    <edge id=":TL_4" function="internal">
        <lane id=":TL_4_0" index="0" speed="6.51" length="9.03" shape="379.31,633.47,-0.07 376.86,633.82,-0.02 375.11,634.87,0.03 374.06,636.62,0.07 373.71,639.07,0.13" />
    </edge>
    <edge id=":TL_5" function="internal">
        <lane id=":TL_5_0" index="0" speed="6.51" length="9.03" shape="373.71,624.67 374.06,627.12,-0.02 375.11,628.87,-0.04 376.86,629.92,-0.05 379.31,630.27,-0.07" />
    </edge>
    <edge id=":TL_6" function="internal">
        <lane id=":TL_6_0" index="0" speed="15.65" length="14.40" shape="373.71,624.67 373.71,639.07,0.13" />
        <lane id=":TL_6_1" index="1" speed="15.65" length="14.40" shape="370.51,624.67 370.51,639.07,0.13" />
    </edge>
    <edge id=":TL_8" function="internal">
        <lane id=":TL_8_0" index="0" speed="8.67" length="3.71" shape="370.51,624.67 369.80,628.31,-0.01" />
    </edge>
    <edge id=":TL_12" function="internal">
        <lane id=":TL_12_0" index="0" speed="8.67" length="13.14" shape="369.80,628.31,-0.01 369.76,628.52,-0.01 367.51,631.27,-0.01 363.76,632.92,-0.02 358.51,633.47,-0.03" />
    </edge>
    <edge id=":TL_9" function="internal">
        <lane id=":TL_9_0" index="0" speed="6.51" length="9.03" shape="358.51,630.27,-0.03 360.96,629.92,-0.02 362.71,628.87,-0.01 363.76,627.12,-0.01 364.11,624.67" />
    </edge>
    <edge id=":TL_10" function="internal">
        <lane id=":TL_10_0" index="0" speed="8.94" length="20.80" shape="358.51,630.27,-0.03 379.31,630.27,-0.07" />
    </edge>

    <edge id="A2AA" from="A" to="AA" priority="-1">
        <lane id="A2AA_0" index="0" speed="13.41" length="115.63" shape="358.51,762.70,2.23 242.88,762.70,2.23" />
        <lane id="A2AA_1" index="1" speed="13.41" length="115.63" shape="358.51,759.50,2.23 242.88,759.50,2.23" />
    </edge>
    <edge id="A2AB" from="A" to="AB" priority="-1">
        <lane id="A2AB_0" index="0" speed="13.41" length="115.63" shape="373.71,768.30,2.23 373.71,883.94,2.23" />
        <lane id="A2AB_1" index="1" speed="13.41" length="115.63" shape="370.51,768.30,2.23 370.51,883.94,2.23" />
    </edge>
    <edge id="A2AC" from="A" to="AC" priority="-1">
        <lane id="A2AC_0" index="0" speed="13.41" length="115.63" shape="379.31,753.10,2.23 494.95,753.10,2.23" />
        <lane id="A2AC_1" index="1" speed="13.41" length="115.63" shape="379.31,756.30,2.23 494.95,756.30,2.23" />
    </edge>
    <edge id="A2TL" from="A" to="TL" priority="-1">
        <lane id="A2TL_0" index="0" speed="13.41" length="108.45" shape="364.11,747.50,2.04 364.11,639.07,0.13" />
        <lane id="A2TL_1" index="1" speed="13.41" length="108.45" shape="367.31,747.50,2.04 367.31,639.07,0.13" />
    </edge>
    <edge id="AA2A" from="AA" to="A" priority="-1">
        <lane id="AA2A_0" index="0" speed="13.41" length="115.63" shape="242.88,753.10,2.23 358.51,753.10,2.23" />
        <lane id="AA2A_1" index="1" speed="13.41" length="115.63" shape="242.88,756.30,2.23 358.51,756.30,2.23" />
    </edge>
    <edge id="AB2A" from="AB" to="A" priority="-1">
        <lane id="AB2A_0" index="0" speed="13.41" length="115.63" shape="364.11,883.94,2.23 364.11,768.30,2.23" />
        <lane id="AB2A_1" index="1" speed="13.41" length="115.63" shape="367.31,883.94,2.23 367.31,768.30,2.23" />
    </edge>
    <edge id="AC2A" from="AC" to="A" priority="-1">
        <lane id="AC2A_0" index="0" speed="13.41" length="115.63" shape="494.95,762.70,2.23 379.31,762.70,2.23" />
        <lane id="AC2A_1" index="1" speed="13.41" length="115.63" shape="494.95,759.50,2.23 379.31,759.50,2.23" />
    </edge>
    <edge id="B2BA" from="B" to="BA" priority="-1">
        <lane id="B2BA_0" index="0" speed="8.94" length="235.02" shape="612.74,639.07,-1.70 612.74,874.09,-1.70" />
    </edge>
    <edge id="B2BB" from="B" to="BB" priority="-1">
        <lane id="B2BB_0" index="0" speed="8.94" length="235.02" shape="618.34,630.27,-1.70 853.36,630.27,-1.70" />
    </edge>
    <edge id="B2BC" from="B" to="BC" priority="-1">
        <lane id="B2BC_0" index="0" speed="8.94" length="235.02" shape="609.54,624.67,-1.70 609.54,389.65,-1.70" />
    </edge>
    <edge id="B2TL" from="B" to="TL" priority="-1">
        <lane id="B2TL_0" index="0" speed="8.94" length="224.63" shape="603.94,633.47,-1.65 379.31,633.47,-0.07" />
    </edge>
    <edge id="BA2B" from="BA" to="B" priority="-1">
        <lane id="BA2B_0" index="0" speed="8.94" length="235.02" shape="609.54,874.09,-1.70 609.54,639.07,-1.70" />
    </edge>
    <edge id="BB2B" from="BB" to="B" priority="-1">
        <lane id="BB2B_0" index="0" speed="8.94" length="235.02" shape="853.36,633.47,-1.70 618.34,633.47,-1.70" />
    </edge>
    <edge id="BC2B" from="BC" to="B" priority="-1">
        <lane id="BC2B_0" index="0" speed="8.94" length="235.02" shape="612.74,389.65,-1.70 612.74,624.67,-1.70" />
    </edge>
    <edge id="C2CA" from="C" to="CA" priority="-1">
        <lane id="C2CA_0" index="0" speed="17.88" length="305.54" shape="379.31,311.14 684.85,311.14" />
        <lane id="C2CA_1" index="1" speed="17.88" length="305.54" shape="379.31,314.34 684.85,314.34" />
    </edge>
    <edge id="C2CB" from="C" to="CB" priority="-1">
        <lane id="C2CB_0" index="0" speed="17.88" length="305.54" shape="364.11,305.54 364.11,-0.00" />
        <lane id="C2CB_1" index="1" speed="17.88" length="305.54" shape="367.31,305.54 367.31,-0.00" />
    </edge>
    <edge id="C2CC" from="C" to="CC" priority="-1">
        <lane id="C2CC_0" index="0" speed="17.88" length="305.54" shape="358.51,320.74 52.98,320.74" />
        <lane id="C2CC_1" index="1" speed="17.88" length="305.54" shape="358.51,317.54 52.98,317.54" />
    </edge>
    <edge id="C2TL" from="C" to="TL" priority="-1">
        <lane id="C2TL_0" index="0" speed="17.88" length="298.34" shape="373.71,326.34 373.71,624.67" />
        <lane id="C2TL_1" index="1" speed="17.88" length="298.34" shape="370.51,326.34 370.51,624.67" />
    </edge>
    <edge id="CA2C" from="CA" to="C" priority="-1">
        <lane id="CA2C_0" index="0" speed="17.88" length="305.54" shape="684.85,320.74 379.31,320.74" />
        <lane id="CA2C_1" index="1" speed="17.88" length="305.54" shape="684.85,317.54 379.31,317.54" />
    </edge>
    <edge id="CB2C" from="CB" to="C" priority="-1">
        <lane id="CB2C_0" index="0" speed="17.88" length="305.54" shape="373.71,0.00 373.71,305.54" />
        <lane id="CB2C_1" index="1" speed="17.88" length="305.54" shape="370.51,0.00 370.51,305.54" />
    </edge>
    <edge id="CC2C" from="CC" to="C" priority="-1">
        <lane id="CC2C_0" index="0" speed="17.88" length="305.54" shape="52.98,311.14 358.51,311.14" />
        <lane id="CC2C_1" index="1" speed="17.88" length="305.54" shape="52.98,314.34 358.51,314.34" />
    </edge>
    <edge id="D2DA" from="D" to="DA" priority="-1">
        <lane id="D2DA_0" index="0" speed="8.94" length="177.26" shape="182.86,624.67,-0.45 182.86,447.41,-0.45" />
    </edge>
    <edge id="D2DB" from="D" to="DB" priority="-1">