<net xmlns:xsi="http://www.w3.org/2001/XMLSchema-instance" version="1.9" junctionCornerDetail="5" limitTurnSpeed="5.50" xsi:noNamespaceSchemaLocation="http://sumo.dlr.de/xsd/net_file.xsd">

    <location netOffset="632.44,613.92" convBoundary="0.00,0.00,1265.06,1230.18" origBoundary="-632.44,-613.92,632.62,616.26" projParameter="!" />

    <edge id=":A_0" function="internal">
        <lane id=":A_0_0" index="0" speed="6.51" length="9.03" shape="627.64,932.45,1.50 627.29,930.00,1.50 626.24,928.25,1.50 624.49,927.20,1.50 622.04,926.85,1.50" />
    </edge>
    <edge id=":A_1" function="internal">
        <lane id=":A_1_0" index="0" speed="15.65" length="20.80" shape="627.64,932.45,1.50 627.64,911.65,1.45" />
        <lane id=":A_1_1" index="1" speed="15.65" length="20.80" shape="630.84,932.45,1.50 630.84,911.65,1.45" />
    </edge>
    <edge id=":A_3" function="internal">
        <lane id=":A_3_0" index="0" speed="9.26" length="5.01" shape="630.84,932.45,1.50 631.55,927.49,1.50" />
    </edge>
    <edge id=":A_4" function="internal">
        <lane id=":A_4_0" index="0" speed="3.65" length="1.44" shape="630.84,932.45,1.50 631.64,931.25,1.50" />
    </edge>
    <edge id=":A_20" function="internal">
        <lane id=":A_20_0" index="0" speed="9.26" length="14.34" shape="631.55,927.49,1.50 631.59,927.20,1.50 633.84,923.45,1.50 637.59,921.20,1.50 642.84,920.45,1.50" />
    </edge>
    <edge id=":A_21" function="internal">
        <lane id=":A_21_0" index="0" speed="3.65" length="3.23" shape="631.64,931.25,1.50 632.44,930.85,1.50 633.24,931.25,1.50 634.04,932.45,1.50" />
    </edge>
    <edge id=":A_5" function="internal">
        <lane id=":A_5_0" index="0" speed="6.51" length="9.03" shape="642.84,926.85,1.50 640.39,927.20,1.50 638.64,928.25,1.50 637.59,930.00,1.50 637.24,932.45,1.50" />
    </edge>
    <edge id=":A_6" function="internal">
        <lane id=":A_6_0" index="0" speed="15.65" length="20.80" shape="642.84,926.85,1.50 622.04,926.85,1.50" />
        <lane id=":A_6_1" index="1" speed="15.65" length="20.80" shape="642.84,923.65,1.50 622.04,923.65,1.50" />
    </edge>
    <edge id=":A_8" function="internal">
        <lane id=":A_8_0" index="0" speed="9.26" length="5.01" shape="642.84,923.65,1.50 637.87,922.94,1.49" />
    </edge>
    <edge id=":A_9" function="internal">
        <lane id=":A_9_0" index="0" speed="3.65" length="1.44" shape="642.84,923.65,1.50 641.64,922.85,1.50" />
    </edge>
    <edge id=":A_22" function="internal">
        <lane id=":A_22_0" index="0" speed="9.26" length="14.34" shape="637.87,922.94,1.49 637.59,922.90,1.49 633.84,920.65,1.48 631.59,916.90,1.47 630.84,911.65,1.45" />
    </edge>
    <edge id=":A_23" function="internal">
        <lane id=":A_23_0" index="0" speed="3.65" length="3.23" shape="641.64,922.85,1.50 641.24,922.05,1.50 641.64,921.25,1.50 642.84,920.45,1.50" />
    </edge>
    <edge id=":A_10" function="internal">
        <lane id=":A_10_0" index="0" speed="6.51" length="9.03" shape="637.24,911.65,1.45 637.59,914.10,1.47 638.64,915.85,1.48 640.39,916.90,1.49 642.84,917.25,1.50" />
    </edge>
    <edge id=":A_11" function="internal">
        <lane id=":A_11_0" index="0" speed="15.65" length="20.80" shape="637.24,911.65,1.45 637.24,932.45,1.50" />
        <lane id=":A_11_1" index="1" speed="15.65" length="20.80" shape="634.04,911.65,1.45 634.04,932.45,1.50" />
    </edge>
    <edge id=":A_13" function="internal">
        <lane id=":A_13_0" index="0" speed="9.26" length="5.01" shape="634.04,911.65,1.45 633.33,916.61,1.47" />
    </edge>
    <edge id=":A_14" function="internal">
        <lane id=":A_14_0" index="0" speed="3.65" length="1.44" shape="634.04,911.65,1.45 633.24,912.85,1.45" />
    </edge>
    <edge id=":A_24" function="internal">
        <lane id=":A_24_0" index="0" speed="9.26" length="14.34" shape="633.33,916.61,1.47 633.29,916.90,1.47 631.04,920.65,1.48 627.29,922.90,1.49 622.04,923.65,1.50" />
    </edge>
    <edge id=":A_25" function="internal">
        <lane id=":A_25_0" index="0" speed="3.65" length="3.23" shape="633.24,912.85,1.45 632.44,913.25,1.45 631.64,912.85,1.45 630.84,911.65,1.45" />
    </edge>
    <edge id=":A_15" function="internal">
        <lane id=":A_15_0" index="0" speed="6.51" length="9.03" shape="622.04,917.25,1.50 624.49,916.90,1.49 626.24,915.85,1.48 627.29,914.10,1.47 627.64,911.65,1.45" />
    </edge>
    <edge id=":A_16" function="internal">
        <lane id=":A_16_0" index="0" speed="15.65" length="20.80" shape="622.04,917.25,1.50 642.84,917.25,1.50" />
        <lane id=":A_16_1" index="1" speed="15.65" length="20.80" shape="622.04,920.45,1.50 642.84,920.45,1.50" />
    </edge>
    <edge id=":A_18" function="internal">
        <lane id=":A_18_0" index="0" speed="9.26" length="5.01" shape="622.04,920.45,1.50 627.00,921.16,1.50" />
    </edge>
    <edge id=":A_19" function="internal">
        <lane id=":A_19_0" index="0" speed="3.65" length="1.44" shape="622.04,920.45,1.50 623.24,921.25,1.50" />
    </edge>
    <edge id=":A_26" function="internal">
        <lane id=":A_26_0" index="0" speed="9.26" length="14.34" shape="627.00,921.16,1.50 627.29,921.20,1.50 631.04,923.45,1.50 633.29,927.20,1.50 634.04,932.45,1.50" />
    </edge>
    <edge id=":A_27" function="internal">
        <lane id=":A_27_0" index="0" speed="3.65" length="3.23" shape="623.24,921.25,1.50 623.64,922.05,1.50 623.24,922.85,1.50 622.04,923.65,1.50" />
    </edge>
    <edge id=":AA_0" function="internal">
        <lane id=":AA_0_0" index="0" speed="3.65" length="4.67" shape="324.31,923.65,1.50 323.11,922.85,1.50 322.71,922.05,1.50 323.11,921.25,1.50 324.31,920.45,1.50" />
    </edge>
    <edge id=":AB_0" function="internal">
        <lane id=":AB_0_0" index="0" speed="3.65" length="4.67" shape="634.04,1230.18,1.50 633.24,1231.38,1.50 632.44,1231.78,1.50 631.64,1231.38,1.50 630.84,1230.18,1.50" />
    </edge>
    <edge id=":AC_0" function="internal">
        <lane id=":AC_0_0" index="0" speed="3.65" length="4.67" shape="940.57,920.45,1.50 941.77,921.25,1.50 942.17,922.05,1.50 941.77,922.85,1.50 940.57,923.65,1.50" />
    </edge>
    <edge id=":A_intern_0" function="internal">
        <lane id=":A_intern_0_0" index="0" speed="15.65" length="8.54" shape="627.64,667.92,0.26 627.14,665.46,0.25 626.04,663.92,0.24 624.94,662.38,0.24 624.44,659.92,0.22" />
        <lane id=":A_intern_0_1" index="1" speed="15.65" length="8.54" shape="630.84,667.92,0.26 630.34,665.46,0.25 629.24,663.92,0.24 628.14,662.38,0.24 627.64,659.92,0.22" />
        <lane id=":A_intern_0_2" index="2" speed="15.65" length="8.54" shape="630.84,667.92,0.26 630.84,659.92,0.22" />
    </edge>
    <edge id=":B_0" function="internal">
        <lane id=":B_0_0" index="0" speed="6.51" length="9.03" shape="940.75,627.52,0.19 940.40,625.07,0.19 939.35,623.32,0.19 937.60,622.27,0.19 935.15,621.92,0.18" />
    </edge>
    <edge id=":B_1" function="internal">
        <lane id=":B_1_0" index="0" speed="15.65" length="27.20" shape="940.75,627.52,0.19 940.75,600.32,0.19" />
        <lane id=":B_1_1" index="1" speed="15.65" length="27.20" shape="943.95,627.52,0.19 943.95,600.32,0.19" />
        <lane id=":B_1_2" index="2" speed="15.65" length="27.20" shape="947.15,627.52,0.19 947.15,600.32,0.19" />
    </edge>
    <edge id=":B_4" function="internal">
        <lane id=":B_4_0" index="0" speed="10.36" length="5.01" shape="947.15,627.52,0.19 947.86,622.55,0.19" />
    </edge>
    <edge id=":B_5" function="internal">
        <lane id=":B_5_0" index="0" speed="3.65" length="1.44" shape="947.15,627.52,0.19 947.95,626.32,0.19" />
    </edge>
    <edge id=":B_24" function="internal">
        <lane id=":B_24_0" index="0" speed="10.36" length="19.50" shape="947.86,622.55,0.19 948.10,620.87,0.19 950.95,616.12,0.19 955.70,613.27,0.19 962.35,612.32,0.19" />
    </edge>
    <edge id=":B_25" function="internal">
        <lane id=":B_25_0" index="0" speed="3.65" length="3.23" shape="947.95,626.32,0.19 948.75,625.92,0.19 949.55,626.32,0.19 950.35,627.52,0.19" />
    </edge>
    <edge id=":B_6" function="internal">
        <lane id=":B_6_0" index="0" speed="6.51" length="9.03" shape="962.35,621.92,0.19 959.90,622.27,0.19 958.15,623.32,0.19 957.10,625.07,0.19 956.75,627.52,0.19" />
    </edge>
    <edge id=":B_7" function="internal">
        <lane id=":B_7_0" index="0" speed="15.65" length="27.20" shape="962.35,621.92,0.19 935.15,621.92,0.18" />
        <lane id=":B_7_1" index="1" speed="15.65" length="27.20" shape="962.35,618.72,0.19 935.15,618.72,0.18" />
        <lane id=":B_7_2" index="2" speed="15.65" length="27.20" shape="962.35,615.52,0.19 935.15,615.52,0.18" />
    </edge>
    <edge id=":B_10" function="internal">
        <lane id=":B_10_0" index="0" speed="10.36" length="5.01" shape="962.35,615.52,0.19 957.38,614.81,0.19" />
    </edge>
    <edge id=":B_11" function="internal">
        <lane id=":B_11_0" index="0" speed="3.65" length="1.44" shape="962.35,615.52,0.19 961.15,614.72,0.19" />
    </edge>
    <edge id=":B_26" function="internal">
        <lane id=":B_26_0" index="0" speed="10.36" length="19.50" shape="957.38,614.81,0.19 955.70,614.57,0.19 950.95,611.72,0.19 948.10,606.97,0.19 947.15,600.32,0.19" />
    </edge>
    <edge id=":B_27" function="internal">
        <lane id=":B_27_0" index="0" speed="3.65" length="3.23" shape="961.15,614.72,0.19 960.75,613.92,0.19 961.15,613.12,0.19 962.35,612.32,0.19" />
    </edge>
    <edge id=":B_12" function="internal">
        <lane id=":B_12_0" index="0" speed="6.51" length="9.03" shape="956.75,600.32,0.19 957.10,602.77,0.19 958.15,604.52,0.19 959.90,605.57,0.19 962.35,605.92,0.19" />
    </edge>
    <edge id=":B_13" function="internal">
        <lane id=":B_13_0" index="0" speed="15.65" length="27.20" shape="956.75,600.32,0.19 956.75,627.52,0.19" />
        <lane id=":B_13_1" index="1" speed="15.65" length="27.20" shape="953.55,600.32,0.19 953.55,627.52,0.19" />
        <lane id=":B_13_2" index="2" speed="15.65" length="27.20" shape="950.35,600.32,0.19 950.35,627.52,0.19" />
    </edge>
    <edge id=":B_16" function="internal">
        <lane id=":B_16_0" index="0" speed="10.36" length="5.01" shape="950.35,600.32,0.19 949.64,605.28,0.19" />
    </edge>
    <edge id=":B_17" function="internal">
        <lane id=":B_17_0" index="0" speed="3.65" length="1.44" shape="950.35,600.32,0.19 949.55,601.52,0.19" />
    </edge>
    <edge id=":B_28" function="internal">
        <lane id=":B_28_0" index="0" speed="10.36" length="19.50" shape="949.64,605.28,0.19 949.40,606.97,0.19 946.55,611.72,0.19 941.80,614.57,0.19 935.15,615.52,0.18" />
    </edge>
    <edge id=":B_29" function="internal">
        <lane id=":B_29_0" index="0" speed="3.65" length="3.23" shape="949.55,601.52,0.19 948.75,601.92,0.19 947.95,601.52,0.19 947.15,600.32,0.19" />
    </edge>
    <edge id=":B_18" function="internal">
        <lane id=":B_18_0" index="0" speed="6.51" length="9.03" shape="935.15,605.92,0.18 937.60,605.57,0.19 939.35,604.52,0.19 940.40,602.77,0.19 940.75,600.32,0.19" />
    </edge>
    <edge id=":B_19" function="internal">
        <lane id=":B_19_0" index="0" speed="15.65" length="27.20" shape="935.15,605.92,0.18 962.35,605.92,0.19" />
        <lane id=":B_19_1" index="1" speed="15.65" length="27.20" shape="935.15,609.12,0.18 962.35,609.12,0.19" />
        <lane id=":B_19_2" index="2" speed="15.65" length="27.20" shape="935.15,612.32,0.18 962.35,612.32,0.19" />
    </edge>
    <edge id=":B_22" function="internal">
        <lane id=":B_22_0" index="0" speed="10.36" length="5.01" shape="935.15,612.32,0.18 940.11,613.03,0.19" />
    </edge>
    <edge id=":B_23" function="internal">
        <lane id=":B_23_0" index="0" speed="3.65" length="1.44" shape="935.15,612.32,0.18 936.35,613.12,0.18" />
    </edge>
    <edge id=":B_30" function="internal">
        <lane id=":B_30_0" index="0" speed="10.36" length="19.50" shape="940.11,613.03,0.19 941.80,613.27,0.19 946.55,616.12,0.19 949.40,620.87,0.19 950.35,627.52,0.19" />
    </edge>
    <edge id=":B_31" function="internal">
        <lane id=":B_31_0" index="0" speed="3.65" length="3.23" shape="936.35,613.12,0.18 936.75,613.92,0.18 936.35,614.72,0.18 935.15,615.52,0.18" />
    </edge>
    <edge id=":BA_0" function="internal">
        <lane id=":BA_0_0" index="0" speed="3.65" length="4.67" shape="950.35,930.23,0.19 949.55,931.43,0.19 948.75,931.83,0.19 947.95,931.43,0.19 947.15,930.23,0.19" />
    </edge>
    <edge id=":BB_0" function="internal">
        <lane id=":BB_0_0" index="0" speed="3.65" length="4.67" shape="1265.06,612.32,0.19 1266.26,613.12,0.19 1266.66,613.92,0.19 1266.26,614.72,0.19 1265.06,615.52,0.19" />
    </edge>
    <edge id=":BC_0" function="internal">
        <lane id=":BC_0_0" index="0" speed="3.65" length="4.67" shape="947.15,297.61,0.19 947.95,296.41,0.19 948.75,296.01,0.19 949.55,296.41,0.19 950.35,297.61,0.19" />
    </edge>
    <edge id=":C_0" function="internal">
        <lane id=":C_0_0" index="0" speed="6.51" length="9.03" shape="627.64,317.36,0.99 627.29,314.91,1.00 626.24,313.16,1.01 624.49,312.11,1.02 622.04,311.76,1.03" />
    </edge>
    <edge id=":C_1" function="internal">
        <lane id=":C_1_0" index="0" speed="15.65" length="20.80" shape="627.64,317.36,0.99 627.64,296.56,1.03" />
        <lane id=":C_1_1" index="1" speed="15.65" length="20.80" shape="630.84,317.36,0.99 630.84,296.56,1.03" />
    </edge>
    <edge id=":C_3" function="internal">
        <lane id=":C_3_0" index="0" speed="9.26" length="5.01" shape="630.84,317.36,0.99 631.55,312.40,1.00" />
    </edge>
    <edge id=":C_4" function="internal">
        <lane id=":C_4_0" index="0" speed="3.65" length="1.44" shape="630.84,317.36,0.99 631.64,316.16,0.99" />
    </edge>
    <edge id=":C_20" function="internal">
        <lane id=":C_20_0" index="0" speed="9.26" length="14.34" shape="631.55,312.40,1.00 631.59,312.11,1.00 633.84,308.36,1.01 637.59,306.11,1.02 642.84,305.36,1.03" />
    </edge>
    <edge id=":C_21" function="internal">
        <lane id=":C_21_0" index="0" speed="3.65" length="3.23" shape="631.64,316.16,0.99 632.44,315.76,0.99 633.24,316.16,0.99 634.04,317.36,0.99" />
    </edge>
    <edge id=":C_5" function="internal">
        <lane id=":C_5_0" index="0" speed="6.51" length="9.03" shape="642.84,311.76,1.03 640.39,312.11,1.02 638.64,313.16,1.01 637.59,314.91,1.00 637.24,317.36,0.99" />
    </edge>
    <edge id=":C_6" function="internal">
        <lane id=":C_6_0" index="0" speed="15.65" length="20.80" shape="642.84,311.76,1.03 622.04,311.76,1.03" />
        <lane id=":C_6_1" index="1" speed="15.65" length="20.80" shape="642.84,308.56,1.03 622.04,308.56,1.03" />
    </edge>
    <edge id=":C_8" function="internal">
        <lane id=":C_8_0" index="0" speed="9.26" length="5.01" shape="642.84,308.56,1.03 637.87,307.85,1.03" />
    </edge>
    <edge id=":C_9" function="internal">
        <lane id=":C_9_0" index="0" speed="3.65" length="1.44" shape="642.84,308.56,1.03 641.64,307.76,1.03" />
    </edge>
    <edge id=":C_22" function="internal">
        <lane id=":C_22_0" index="0" speed="9.26" length="14.34" shape="637.87,307.85,1.03 637.59,307.81,1.03 633.84,305.56,1.03 631.59,301.81,1.03 630.84,296.56,1.03" />
    </edge>
    <edge id=":C_23" function="internal">
        <lane id=":C_23_0" index="0" speed="3.65" length="3.23" shape="641.64,307.76,1.03 641.24,306.96,1.03 641.64,306.16,1.03 642.84,305.36,1.03" />
    </edge>
    <edge id=":C_10" function="internal">
        <lane id=":C_10_0" index="0" speed="6.51" length="9.03" shape="637.24,296.56,1.03 637.59,299.01,1.03 638.64,300.76,1.03 640.39,301.81,1.03 642.84,302.16,1.03" />
    </edge>
    <edge id=":C_11" function="internal">
        <lane id=":C_11_0" index="0" speed="15.65" length="20.80" shape="637.24,296.56,1.03 637.24,317.36,0.99" />
        <lane id=":C_11_1" index="1" speed="15.65" length="20.80" shape="634.04,296.56,1.03 634.04,317.36,0.99" />
    </edge>
    <edge id=":C_13" function="internal">
        <lane id=":C_13_0" index="0" speed="9.26" length="5.01" shape="634.04,296.56,1.03 633.33,301.52,1.03" />
    </edge>
    <edge id=":C_14" function="internal">
        <lane id=":C_14_0" index="0" speed="3.65" length="1.44" shape="634.04,296.56,1.03 633.24,297.76,1.03" />
    </edge>
    <edge id=":C_24" function="internal">
        <lane id=":C_24_0" index="0" speed="9.26" length="14.34" shape="633.33,301.52,1.03 633.29,301.81,1.03 631.04,305.56,1.03 627.29,307.81,1.03 622.04,308.56,1.03" />
    </edge>
    <edge id=":C_25" function="internal">
        <lane id=":C_25_0" index="0" speed="3.65" length="3.23" shape="633.24,297.76,1.03 632.44,298.16,1.03 631.64,297.76,1.03 630.84,296.56,1.03" />
    </edge>
    <edge id=":C_15" function="internal">
        <lane id=":C_15_0" index="0" speed="6.51" length="9.03" shape="622.04,302.16,1.03 624.49,301.81,1.03 626.24,300.76,1.03 627.29,299.01,1.03 627.64,296.56,1.03" />
    </edge>
    <edge id=":C_16" function="internal">
        <lane id=":C_16_0" index="0" speed="15.65" length="20.80" shape="622.04,302.16,1.03 642.84,302.16,1.03" />
        <lane id=":C_16_1" index="1" speed="15.65" length="20.80" shape="622.04,305.36,1.03 642.84,305.36,1.03" />
    </edge>
    <edge id=":C_18" function="internal">
        <lane id=":C_18_0" index="0" speed="9.26" length="5.01" shape="622.04,305.36,1.03 627.00,306.07,1.02" />
    </edge>
    <edge id=":C_19" function="internal">
        <lane id=":C_19_0" index="0" speed="3.65" length="1.44" shape="622.04,305.36,1.03 623.24,306.16,1.03" />
    </edge>
    <edge id=":C_26" function="internal">
        <lane id=":C_26_0" index="0" speed="9.26" length="14.34" shape="627.00,306.07,1.02 627.29,306.11,1.02 631.04,308.36,1.01 633.29,312.11,1.00 634.04,317.36,0.99" />
    </edge>
    <edge id=":C_27" function="internal">
        <lane id=":C_27_0" index="0" speed="3.65" length="3.23" shape="623.24,306.16,1.03 623.64,306.96,1.03 623.24,307.76,1.03 622.04,308.56,1.03" />
    </edge>
    <edge id=":CA_0" function="internal">
        <lane id=":CA_0_0" index="0" speed="3.65" length="4.67" shape="939.40,305.36,1.03 940.60,306.16,1.03 941.00,306.96,1.03 940.60,307.76,1.03 939.40,308.56,1.03" />
    </edge>
    <edge id=":CB_0" function="internal">
        <lane id=":CB_0_0" index="0" speed="3.65" length="4.67" shape="630.84,0.00,1.03 631.64,-1.20,1.03 632.44,-1.60,1.03 633.24,-1.20,1.03 634.04,0.00,1.03" />
    </edge>
    <edge id=":CC_0" function="internal">
        <lane id=":CC_0_0" index="0" speed="3.65" length="4.67" shape="325.48,308.56,1.03 324.28,307.76,1.03 323.88,306.96,1.03 324.28,306.16,1.03 325.48,305.36,1.03" />
    </edge>
    <edge id=":C_intern_0" function="internal">
        <lane id=":C_intern_0_0" index="0" speed="15.65" length="8.54" shape="637.24,559.92,0.18 637.74,562.38,0.17 638.84,563.92,0.17 639.94,565.46,0.16 640.44,567.92,0.15" />
        <lane id=":C_intern_0_1" index="1" speed="15.65" length="8.54" shape="634.04,559.92,0.18 634.54,562.38,0.17 635.64,563.92,0.17 636.74,565.46,0.16 637.24,567.92,0.15" />
        <lane id=":C_intern_0_2" index="2" speed="15.65" length="8.54" shape="634.04,559.92,0.18 634.04,567.92,0.15" />
    </edge>
    <edge id=":D_0" function="internal">
        <lane id=":D_0_0" index="0" speed="6.51" length="9.03" shape="308.22,627.52,2.12 307.87,625.07,2.12 306.82,623.32,2.12 305.07,622.27,2.12 302.62,621.92,2.12" />
    </edge>
    <edge id=":D_1" function="internal">
        <lane id=":D_1_0" index="0" speed="13.41" length="27.20" shape="308.22,627.52,2.12 308.22,600.32,2.12" />
        <lane id=":D_1_1" index="1" speed="13.41" length="27.20" shape="311.42,627.52,2.12 311.42,600.32,2.12" />
        <lane id=":D_1_2" index="2" speed="13.41" length="27.20" shape="314.62,627.52,2.12 314.62,600.32,2.12" />
    </edge>
    <edge id=":D_4" function="internal">
        <lane id=":D_4_0" index="0" speed="10.36" length="5.01" shape="314.62,627.52,2.12 315.33,622.55,2.10" />
    </edge>
    <edge id=":D_5" function="internal">
        <lane id=":D_5_0" index="0" speed="3.65" length="1.44" shape="314.62,627.52,2.12 315.42,626.32,2.12" />
    </edge>
    <edge id=":D_24" function="internal">
        <lane id=":D_24_0" index="0" speed="10.36" length="19.50" shape="315.33,622.55,2.10 315.57,620.87,2.10 318.42,616.12,2.07 323.17,613.27,2.05 329.82,612.32,2.03" />
    </edge>
    <edge id=":D_25" function="internal">
        <lane id=":D_25_0" index="0" speed="3.65" length="3.23" shape="315.42,626.32,2.12 316.22,625.92,2.12 317.02,626.32,2.12 317.82,627.52,2.12" />
    </edge>
    <edge id=":D_6" function="internal">
        <lane id=":D_6_0" index="0" speed="6.51" length="9.03" shape="329.82,621.92,2.03 327.37,622.27,2.05 325.62,623.32,2.07 324.57,625.07,2.10 324.22,627.52,2.12" />
    </edge>
    <edge id=":D_7" function="internal">
        <lane id=":D_7_0" index="0" speed="13.41" length="27.20" shape="329.82,621.92,2.03 302.62,621.92,2.12" />
        <lane id=":D_7_1" index="1" speed="13.41" length="27.20" shape="329.82,618.72,2.03 302.62,618.72,2.12" />
        <lane id=":D_7_2" index="2" speed="13.41" length="27.20" shape="329.82,615.52,2.03 302.62,615.52,2.12" />
    </edge>
    <edge id=":D_10" function="internal">
        <lane id=":D_10_0" index="0" speed="10.36" length="5.01" shape="329.82,615.52,2.03 324.86,614.81,2.05" />
    </edge>
    <edge id=":D_11" function="internal">
        <lane id=":D_11_0" index="0" speed="3.65" length="1.44" shape="329.82,615.52,2.03 328.62,614.72,2.03" />
    </edge>
    <edge id=":D_26" function="internal">
        <lane id=":D_26_0" index="0" speed="10.36" length="19.50" shape="324.86,614.81,2.05 323.17,614.57,2.05 318.42,611.72,2.07 315.57,606.97,2.10 314.62,600.32,2.12" />
    </edge>
    <edge id=":D_27" function="internal">
        <lane id=":D_27_0" index="0" speed="3.65" length="3.23" shape="328.62,614.72,2.03 328.22,613.92,2.03 328.62,613.12,2.03 329.82,612.32,2.03" />
    </edge>
    <edge id=":D_12" function="internal">
        <lane id=":D_12_0" index="0" speed="6.51" length="9.03" shape="324.22,600.32,2.12 324.57,602.77,2.10 325.62,604.52,2.07 327.37,605.57,2.05 329.82,605.92,2.03" />
    </edge>
    <edge id=":D_13" function="internal">
        <lane id=":D_13_0" index="0" speed="13.41" length="27.20" shape="324.22,600.32,2.12 324.22,627.52,2.12" />
        <lane id=":D_13_1" index="1" speed="13.41" length="27.20" shape="321.02,600.32,2.12 321.02,627.52,2.12" />
        <lane id=":D_13_2" index="2" speed="13.41" length="27.20" shape="317.82,600.32,2.12 317.82,627.52,2.12" />
    </edge>
    <edge id=":D_16" function="internal">
        <lane id=":D_16_0" index="0" speed="10.36" length="5.01" shape="317.82,600.32,2.12 317.11,605.28,2.12" />
    </edge>
    <edge id=":D_17" function="internal">
        <lane id=":D_17_0" index="0" speed="3.65" length="1.44" shape="317.82,600.32,2.12 317.02,601.52,2.12" />
    </edge>
    <edge id=":D_28" function="internal">
        <lane id=":D_28_0" index="0" speed="10.36" length="19.50" shape="317.11,605.28,2.12 316.87,606.97,2.12 314.02,611.72,2.12 309.27,614.57,2.12 302.62,615.52,2.12" />
    </edge>
    <edge id=":D_29" function="internal">
        <lane id=":D_29_0" index="0" speed="3.65" length="3.23" shape="317.02,601.52,2.12 316.22,601.92,2.12 315.42,601.52,2.12 314.62,600.32,2.12" />
    </edge>
    <edge id=":D_18" function="internal">
        <lane id=":D_18_0" index="0" speed="6.51" length="9.03" shape="302.62,605.92,2.12 305.07,605.57,2.12 306.82,604.52,2.12 307.87,602.77,2.12 308.22,600.32,2.12" />
    </edge>
    <edge id=":D_19" function="internal">
        <lane id=":D_19_0" index="0" speed="13.41" length="27.20" shape="302.62,605.92,2.12 329.82,605.92,2.03" />
        <lane id=":D_19_1" index="1" speed="13.41" length="27.20" shape="302.62,609.12,2.12 329.82,609.12,2.03" />
        <lane id=":D_19_2" index="2" speed="13.41" length="27.20" shape="302.62,612.32,2.12 329.82,612.32,2.03" />
    </edge>
    <edge id=":D_22" function="internal">
        <lane id=":D_22_0" index="0" speed="10.36" length="5.01" shape="302.62,612.32,2.12 307.58,613.03,2.12" />
    </edge>
    <edge id=":D_23" function="internal">
        <lane id=":D_23_0" index="0" speed="3.65" length="1.44" shape="302.62,612.32,2.12 303.82,613.12,2.12" />
    </edge>
    <edge id=":D_30" function="internal">
        <lane id=":D_30_0" index="0" speed="10.36" length="19.50" shape="307.58,613.03,2.12 309.27,613.27,2.12 314.02,616.12,2.12 316.87,620.87,2.12 317.82,627.52,2.12" />
    </edge>
    <edge id=":D_31" function="internal">
        <lane id=":D_31_0" index="0" speed="3.65" length="3.23" shape="303.82,613.12,2.12 304.22,613.92,2.12 303.82,614.72,2.12 302.62,615.52,2.12" />
    </edge>
    <edge id=":DA_0" function="internal">
        <lane id=":DA_0_0" index="0" speed="3.65" length="4.67" shape="314.62,297.70,2.12 315.42,296.50,2.12 316.22,296.10,2.12 317.02,296.50,2.12 317.82,297.70,2.12" />
    </edge>
    <edge id=":DB_0" function="internal">
        <lane id=":DB_0_0" index="0" speed="3.65" length="4.67" shape="-0.00,615.52,2.12 -1.20,614.72,2.12 -1.60,613.92,2.12 -1.20,613.12,2.12 0.00,612.32,2.12" />
    </edge>
    <edge id=":DC_0" function="internal">
        <lane id=":DC_0_0" index="0" speed="3.65" length="4.67" shape="317.82,930.14,2.12 317.02,931.34,2.12 316.22,931.74,2.12 315.42,931.34,2.12 314.62,930.14,2.12" />
    </edge>
    <edge id=":TL_0" function="internal">
        <lane id=":TL_0_0" index="0" speed="6.51" length="9.03" shape="624.44,627.52,0.07 624.09,625.07,0.07 623.04,623.32,0.08 621.29,622.27,0.08 618.84,621.92,0.09" />
    </edge>
    <edge id=":TL_1" function="internal">
        <lane id=":TL_1_0" index="0" speed="15.65" length="27.43" shape="624.44,627.52,0.07 624.94,618.90,0.06 626.04,612.53,0.05 627.14,606.86,0.05 627.64,600.32,0.05" />
        <lane id=":TL_1_1" index="1" speed="15.65" length="27.43" shape="627.64,627.52,0.07 628.14,618.90,0.06 629.24,612.53,0.05 630.34,606.86,0.05 630.84,600.32,0.05" />
    </edge>
    <edge id=":TL_3" function="internal">
        <lane id=":TL_3_0" index="0" speed="10.36" length="7.16" shape="630.84,627.52,0.07 631.79,620.87,0.05 632.01,620.49,0.05" />
    </edge>
    <edge id=":TL_18" function="internal">
        <lane id=":TL_18_0" index="0" speed="10.36" length="17.36" shape="632.01,620.49,0.05 634.64,616.12,0.04 639.39,613.27,0.02 646.04,612.32,0.01" />
    </edge>
    <edge id=":TL_4" function="internal">
        <lane id=":TL_4_0" index="0" speed="7.33" length="11.73" shape="646.04,621.92,0.01 642.19,622.27,0.03 639.44,623.32,0.04 637.79,625.07,0.05 637.24,627.52,0.07" />
    </edge>
    <edge id=":TL_5" function="internal">
        <lane id=":TL_5_0" index="0" speed="14.53" length="27.20" shape="646.04,621.92,0.01 618.84,621.92,0.09" />
        <lane id=":TL_5_1" index="1" speed="14.53" length="27.20" shape="646.04,618.72,0.01 618.84,618.72,0.09" />
        <lane id=":TL_5_2" index="2" speed="14.53" length="27.20" shape="646.04,615.52,0.01 618.84,615.52,0.09" />
    </edge>
    <edge id=":TL_8" function="internal">
        <lane id=":TL_8_0" index="0" speed="10.36" length="5.01" shape="646.04,615.52,0.01 641.07,614.81,0.02" />
    </edge>
    <edge id=":TL_19" function="internal">
        <lane id=":TL_19_0" index="0" speed="10.36" length="19.50" shape="641.07,614.81,0.02 639.39,614.57,0.02 634.64,611.72,0.03 631.79,606.97,0.04 630.84,600.32,0.05" />
    </edge>
    <edge id=":TL_9" function="internal">
        <lane id=":TL_9_0" index="0" speed="6.51" length="9.03" shape="640.44,600.32,0.05 640.79,602.77,0.04 641.84,604.52,0.03 643.59,605.57,0.02 646.04,605.92,0.01" />
    </edge>
    <edge id=":TL_10" function="internal">
        <lane id=":TL_10_0" index="0" speed="15.65" length="27.43" shape="640.44,600.32,0.05 639.94,608.94,0.05 638.84,615.30,0.06 637.74,620.97,0.06 637.24,627.52,0.07" />
        <lane id=":TL_10_1" index="1" speed="15.65" length="27.43" shape="637.24,600.32,0.05 636.74,608.94,0.05 635.64,615.30,0.06 634.54,620.97,0.06 634.04,627.52,0.07" />
    </edge>
    <edge id=":TL_12" function="internal">
        <lane id=":TL_12_0" index="0" speed="10.36" length="7.16" shape="634.04,600.32,0.05 633.09,606.97,0.06 632.86,607.34,0.06" />
    </edge>
    <edge id=":TL_20" function="internal">
        <lane id=":TL_20_0" index="0" speed="10.36" length="17.36" shape="632.86,607.34,0.06 630.24,611.72,0.07 625.49,614.57,0.08 618.84,615.52,0.09" />
    </edge>
    <edge id=":TL_13" function="internal">
        <lane id=":TL_13_0" index="0" speed="7.33" length="11.73" shape="618.84,605.92,0.09 622.69,605.57,0.08 625.44,604.52,0.06 627.09,602.77,0.06 627.64,600.32,0.05" />
    </edge>
    <edge id=":TL_14" function="internal">
        <lane id=":TL_14_0" index="0" speed="14.53" length="27.20" shape="618.84,605.92,0.09 646.04,605.92,0.01" />
        <lane id=":TL_14_1" index="1" speed="14.53" length="27.20" shape="618.84,609.12,0.09 646.04,609.12,0.01" />
        <lane id=":TL_14_2" index="2" speed="14.53" length="27.20" shape="618.84,612.32,0.09 646.04,612.32,0.01" />
    </edge>
    <edge id=":TL_17" function="internal">
        <lane id=":TL_17_0" index="0" speed="10.36" length="5.01" shape="618.84,612.32,0.09 623.80,613.03,0.09" />
    </edge>
    <edge id=":TL_21" function="internal">
        <lane id=":TL_21_0" index="0" speed="10.36" length="19.50" shape="623.80,613.03,0.09 625.49,613.27,0.08 630.24,616.12,0.08 633.09,620.87,0.07 634.04,627.52,0.07" />
    </edge>

    <edge id="A2AA" from="A" to="AA" priority="-1">
        <lane id="A2AA_0" index="0" speed="15.65" length="297.73" shape="622.04,926.85,1.50 324.31,926.85,1.50" />
        <lane id="A2AA_1" index="1" speed="15.65" length="297.73" shape="622.04,923.65,1.50 324.31,923.65,1.50" />
    </edge>
    <edge id="A2AB" from="A" to="AB" priority="-1">
        <lane id="A2AB_0" index="0" speed="15.65" length="297.73" shape="637.24,932.45,1.50 637.24,1230.18,1.50" />
        <lane id="A2AB_1" index="1" speed="15.65" length="297.73" shape="634.04,932.45,1.50 634.04,1230.18,1.50" />
    </edge>