<net xmlns:xsi="http://www.w3.org/2001/XMLSchema-instance" version="1.9" junctionCornerDetail="5" limitTurnSpeed="5.50" xsi:noNamespaceSchemaLocation="http://sumo.dlr.de/xsd/net_file.xsd">

    <location netOffset="304.90,609.81" convBoundary="0.00,0.00,718.74,1207.59" origBoundary="-304.90,-609.81,413.83,597.78" projParameter="!" />

    <edge id=":A_0" function="internal">
        <lane id=":A_0_0" index="0" speed="7.33" length="11.73" shape="296.90,922.30,-7.38 296.55,918.45,-7.38 295.50,915.70,-7.38 293.75,914.05,-7.38 291.30,913.50,-7.38" />
    </edge>
    <edge id=":A_1" function="internal">
        <lane id=":A_1_0" index="0" speed="13.41" length="27.20" shape="296.90,922.30,-7.38 296.90,895.10,-7.38" />
        <lane id=":A_1_1" index="1" speed="13.41" length="27.20" shape="300.10,922.30,-7.38 300.10,895.10,-7.38" />
        <lane id=":A_1_2" index="2" speed="13.41" length="27.20" shape="303.30,922.30,-7.38 303.30,895.10,-7.38" />
    </edge>
    <edge id=":A_4" function="internal">
        <lane id=":A_4_0" index="0" speed="9.84" length="6.30" shape="303.30,922.30,-7.38 304.01,916.04,-7.38" />
    </edge>
    <edge id=":A_5" function="internal">
        <lane id=":A_5_0" index="0" speed="3.65" length="1.44" shape="303.30,922.30,-7.38 304.10,921.10,-7.38" />
    </edge>
    <edge id=":A_21" function="internal">
        <lane id=":A_21_0" index="0" speed="9.84" length="15.70" shape="304.01,916.04,-7.38 304.05,915.65,-7.38 306.30,910.90,-7.38 310.05,908.05,-7.38 315.30,907.10,-7.38" />
    </edge>
    <edge id=":A_22" function="internal">
        <lane id=":A_22_0" index="0" speed="3.65" length="3.23" shape="304.10,921.10,-7.38 304.90,920.70,-7.38 305.70,921.10,-7.38 306.50,922.30,-7.38" />
    </edge>
    <edge id=":A_6" function="internal">
        <lane id=":A_6_0" index="0" speed="6.51" length="9.03" shape="315.30,916.70,-7.38 312.85,917.05,-7.38 311.10,918.10,-7.38 310.05,919.85,-7.38 309.70,922.30,-7.38" />
    </edge>
    <edge id=":A_7" function="internal">
        <lane id=":A_7_0" index="0" speed="13.41" length="24.27" shape="315.30,916.70,-7.38 307.85,916.20,-7.38 302.52,915.10,-7.38 297.57,914.00,-7.38 291.30,913.50,-7.38" />
        <lane id=":A_7_1" index="1" speed="13.41" length="24.27" shape="315.30,913.50,-7.38 307.85,913.00,-7.38 302.52,911.90,-7.38 297.57,910.80,-7.38 291.30,910.30,-7.38" />
    </edge>
    <edge id=":A_9" function="internal">
        <lane id=":A_9_0" index="0" speed="9.84" length="5.46" shape="315.30,910.30,-7.38 310.05,909.35,-7.38 309.95,909.27,-7.38" />
    </edge>
    <edge id=":A_10" function="internal">
        <lane id=":A_10_0" index="0" speed="3.65" length="1.44" shape="315.30,910.30,-7.38 314.10,909.50,-7.38" />
    </edge>
    <edge id=":A_23" function="internal">
        <lane id=":A_23_0" index="0" speed="9.84" length="16.53" shape="309.95,909.27,-7.38 306.30,906.50,-7.38 304.05,901.75,-7.38 303.30,895.10,-7.38" />
    </edge>
    <edge id=":A_24" function="internal">
        <lane id=":A_24_0" index="0" speed="3.65" length="3.23" shape="314.10,909.50,-7.38 313.70,908.70,-7.38 314.10,907.90,-7.38 315.30,907.10,-7.38" />
    </edge>
    <edge id=":A_11" function="internal">
        <lane id=":A_11_0" index="0" speed="7.33" length="11.73" shape="309.70,895.10,-7.38 310.05,898.95,-7.38 311.10,901.70,-7.38 312.85,903.35,-7.38 315.30,903.90,-7.38" />
    </edge>
    <edge id=":A_12" function="internal">
        <lane id=":A_12_0" index="0" speed="13.41" length="27.20" shape="309.70,895.10,-7.38 309.70,922.30,-7.38" />
        <lane id=":A_12_1" index="1" speed="13.41" length="27.20" shape="306.50,895.10,-7.38 306.50,922.30,-7.38" />
    </edge>
    <edge id=":A_14" function="internal">
        <lane id=":A_14_0" index="0" speed="10.36" length="5.01" shape="306.50,895.10,-7.38 305.80,900.06,-7.38" />
    </edge>
    <edge id=":A_15" function="internal">
        <lane id=":A_15_0" index="0" speed="3.65" length="1.44" shape="306.50,895.10,-7.38 305.70,896.30,-7.38" />
    </edge>
    <edge id=":A_25" function="internal">
        <lane id=":A_25_0" index="0" speed="10.36" length="19.50" shape="305.80,900.06,-7.38 305.55,901.75,-7.38 302.70,906.50,-7.38 297.95,909.35,-7.38 291.30,910.30,-7.38" />
    </edge>
    <edge id=":A_26" function="internal">
        <lane id=":A_26_0" index="0" speed="3.65" length="3.23" shape="305.70,896.30,-7.38 304.90,896.70,-7.38 304.10,896.30,-7.38 303.30,895.10,-7.38" />
    </edge>
    <edge id=":A_16" function="internal">
        <lane id=":A_16_0" index="0" speed="6.51" length="9.03" shape="291.30,900.70,-7.38 293.75,900.35,-7.38 295.50,899.30,-7.38 296.55,897.55,-7.38 296.90,895.10,-7.38" />
    </edge>
    <edge id=":A_17" function="internal">
        <lane id=":A_17_0" index="0" speed="13.41" length="24.27" shape="291.30,900.70,-7.38 298.76,901.20,-7.38 304.09,902.30,-7.38 309.04,903.40,-7.38 315.30,903.90,-7.38" />
        <lane id=":A_17_1" index="1" speed="13.41" length="24.27" shape="291.30,903.90,-7.38 298.76,904.40,-7.38 304.09,905.50,-7.38 309.04,906.60,-7.38 315.30,907.10,-7.38" />
    </edge>
    <edge id=":A_19" function="internal">
        <lane id=":A_19_0" index="0" speed="10.36" length="7.35" shape="291.30,907.10,-7.38 297.95,908.05,-7.38 298.49,908.37,-7.38" />
    </edge>
    <edge id=":A_20" function="internal">
        <lane id=":A_20_0" index="0" speed="3.65" length="1.44" shape="291.30,907.10,-7.38 292.50,907.90,-7.38" />
    </edge>
    <edge id=":A_27" function="internal">
        <lane id=":A_27_0" index="0" speed="10.36" length="17.17" shape="298.49,908.37,-7.38 302.70,910.90,-7.38 305.55,915.65,-7.38 306.50,922.30,-7.38" />
    </edge>
    <edge id=":A_28" function="internal">
        <lane id=":A_28_0" index="0" speed="3.65" length="3.23" shape="292.50,907.90,-7.38 292.90,908.70,-7.38 292.50,909.50,-7.38 291.30,910.30,-7.38" />
    </edge>
    <edge id=":AA_0" function="internal">
        <lane id=":AA_0_0" index="0" speed="3.65" length="4.67" shape="6.02,910.30,-7.38 4.82,909.50,-7.38 4.42,908.70,-7.38 4.82,907.90,-7.38 6.02,907.10,-7.38" />
    </edge>
    <edge id=":AB_0" function="internal">
        <lane id=":AB_0_0" index="0" speed="3.65" length="4.67" shape="306.50,1207.59,-7.38 305.70,1208.79,-7.38 304.90,1209.19,-7.38 304.10,1208.79,-7.38 303.30,1207.59,-7.38" />
    </edge>
    <edge id=":AC_0" function="internal">
        <lane id=":AC_0_0" index="0" speed="3.65" length="4.67" shape="603.79,907.10,-7.38 604.99,907.90,-7.38 605.39,908.70,-7.38 604.99,909.50,-7.38 603.79,910.30,-7.38" />
    </edge>
    <edge id=":B_0" function="internal">
        <lane id=":B_0_0" index="0" speed="6.51" length="9.03" shape="510.22,617.01,-4.10 509.87,614.56,-4.06 508.82,612.81,-4.03 507.07,611.76,-4.00 504.62,611.41,-3.96" />
    </edge>
    <edge id=":B_1" function="internal">
        <lane id=":B_1_0" index="0" speed="8.94" length="14.40" shape="510.22,617.01,-4.10 510.22,602.61,-4.10" />
    </edge>
    <edge id=":B_2" function="internal">
        <lane id=":B_2_0" index="0" speed="8.00" length="4.07" shape="510.22,617.01,-4.10 510.77,613.16,-4.10 510.86,613.01,-4.10" />
    </edge>
    <edge id=":B_3" function="internal">
        <lane id=":B_3_0" index="0" speed="3.65" length="1.44" shape="510.22,617.01,-4.10 511.02,615.81,-4.10" />
    </edge>
    <edge id=":B_16" function="internal">
        <lane id=":B_16_0" index="0" speed="8.00" length="10.13" shape="510.86,613.01,-4.10 512.42,610.41,-4.10 515.17,608.76,-4.10 519.02,608.21,-4.10" />
    </edge>
    <edge id=":B_17" function="internal">
        <lane id=":B_17_0" index="0" speed="3.65" length="3.23" shape="511.02,615.81,-4.10 511.82,615.41,-4.10 512.62,615.81,-4.10 513.42,617.01,-4.10" />
    </edge>
    <edge id=":B_4" function="internal">
        <lane id=":B_4_0" index="0" speed="6.51" length="9.03" shape="519.02,611.41,-4.10 516.57,611.76,-4.10 514.82,612.81,-4.10 513.77,614.56,-4.10 513.42,617.01,-4.10" />
    </edge>
    <edge id=":B_5" function="internal">
        <lane id=":B_5_0" index="0" speed="8.94" length="14.40" shape="519.02,611.41,-4.10 504.62,611.41,-3.96" />
    </edge>
    <edge id=":B_6" function="internal">
        <lane id=":B_6_0" index="0" speed="8.00" length="4.07" shape="519.02,611.41,-4.10 515.17,610.86,-4.10 515.02,610.77,-4.10" />
    </edge>
    <edge id=":B_7" function="internal">
        <lane id=":B_7_0" index="0" speed="3.65" length="1.44" shape="519.02,611.41,-4.10 517.82,610.61,-4.10" />
    </edge>
    <edge id=":B_18" function="internal">
        <lane id=":B_18_0" index="0" speed="8.00" length="10.13" shape="515.02,610.77,-4.10 512.42,609.21,-4.10 510.77,606.46,-4.10 510.22,602.61,-4.10" />
    </edge>
    <edge id=":B_19" function="internal">
        <lane id=":B_19_0" index="0" speed="3.65" length="3.23" shape="517.82,610.61,-4.10 517.42,609.81,-4.10 517.82,609.01,-4.10 519.02,608.21,-4.10" />
    </edge>
    <edge id=":B_8" function="internal">
        <lane id=":B_8_0" index="0" speed="6.51" length="9.03" shape="513.42,602.61,-4.10 513.77,605.06,-4.10 514.82,606.81,-4.10 516.57,607.86,-4.10 519.02,608.21,-4.10" />
    </edge>
    <edge id=":B_9" function="internal">
        <lane id=":B_9_0" index="0" speed="8.94" length="14.40" shape="513.42,602.61,-4.10 513.42,617.01,-4.10" />
    </edge>
    <edge id=":B_10" function="internal">
        <lane id=":B_10_0" index="0" speed="8.00" length="4.07" shape="513.42,602.61,-4.10 512.87,606.46,-4.06 512.78,606.61,-4.06" />
    </edge>
    <edge id=":B_11" function="internal">
        <lane id=":B_11_0" index="0" speed="3.65" length="1.44" shape="513.42,602.61,-4.10 512.62,603.81,-4.10" />
    </edge>
    <edge id=":B_20" function="internal">
        <lane id=":B_20_0" index="0" speed="8.00" length="10.13" shape="512.78,606.61,-4.06 511.22,609.21,-4.03 508.47,610.86,-4.00 504.62,611.41,-3.96" />
    </edge>
    <edge id=":B_21" function="internal">
        <lane id=":B_21_0" index="0" speed="3.65" length="3.23" shape="512.62,603.81,-4.10 511.82,604.21,-4.10 511.02,603.81,-4.10 510.22,602.61,-4.10" />
    </edge>
    <edge id=":B_12" function="internal">
        <lane id=":B_12_0" index="0" speed="6.51" length="9.03" shape="504.62,608.21,-3.95 507.07,607.86,-3.99 508.82,606.81,-4.02 509.87,605.06,-4.06 510.22,602.61,-4.10" />
    </edge>
    <edge id=":B_13" function="internal">
        <lane id=":B_13_0" index="0" speed="8.94" length="14.40" shape="504.62,608.21,-3.95 519.02,608.21,-4.10" />
    </edge>
    <edge id=":B_14" function="internal">
        <lane id=":B_14_0" index="0" speed="8.00" length="4.07" shape="504.62,608.21,-3.95 508.47,608.76,-3.99 508.62,608.85,-3.99" />
    </edge>
    <edge id=":B_15" function="internal">
        <lane id=":B_15_0" index="0" speed="3.65" length="1.44" shape="504.62,608.21,-3.95 505.82,609.01,-3.95" />
    </edge>
    <edge id=":B_22" function="internal">
        <lane id=":B_22_0" index="0" speed="8.00" length="10.13" shape="508.62,608.85,-3.99 511.22,610.41,-4.02 512.87,613.16,-4.06 513.42,617.01,-4.10" />
    </edge>
    <edge id=":B_23" function="internal">
        <lane id=":B_23_0" index="0" speed="3.65" length="3.23" shape="505.82,609.01,-3.95 506.22,609.81,-3.95 505.82,610.61,-3.95 504.62,611.41,-3.96" />
    </edge>
    <edge id=":BA_0" function="internal">
        <lane id=":BA_0_0" index="0" speed="3.65" length="4.67" shape="513.42,816.73,-4.10 512.62,817.93,-4.10 511.82,818.33,-4.10 511.02,817.93,-4.10 510.22,816.73,-4.10" />
    </edge>
    <edge id=":BB_0" function="internal">
        <lane id=":BB_0_0" index="0" speed="3.65" length="4.67" shape="718.74,608.21,-4.10 719.94,609.01,-4.10 720.34,609.81,-4.10 719.94,610.61,-4.10 718.74,611.41,-4.10" />
    </edge>
    <edge id=":BC_0" function="internal">
        <lane id=":BC_0_0" index="0" speed="3.65" length="4.67" shape="510.22,402.89,-4.10 511.02,401.69,-4.10 511.82,401.29,-4.10 512.62,401.69,-4.10 513.42,402.89,-4.10" />
    </edge>
    <edge id=":C_0" function="internal">
        <lane id=":C_0_0" index="0" speed="7.33" length="11.73" shape="300.10,318.50,9.48 299.75,314.65,9.48 298.70,311.90,9.48 296.95,310.25,9.48 294.50,309.70,9.48" />
    </edge>
    <edge id=":C_1" function="internal">
        <lane id=":C_1_0" index="0" speed="13.41" length="27.20" shape="300.10,318.50,9.48 300.10,291.30,9.48" />
        <lane id=":C_1_1" index="1" speed="13.41" length="27.20" shape="303.30,318.50,9.48 303.30,291.30,9.48" />
    </edge>
    <edge id=":C_3" function="internal">
        <lane id=":C_3_0" index="0" speed="10.36" length="5.01" shape="303.30,318.50,9.48 304.01,313.54,9.48" />
    </edge>
    <edge id=":C_4" function="internal">
        <lane id=":C_4_0" index="0" speed="3.65" length="1.44" shape="303.30,318.50,9.48 304.10,317.30,9.48" />
    </edge>
    <edge id=":C_21" function="internal">
        <lane id=":C_21_0" index="0" speed="10.36" length="19.50" shape="304.01,313.54,9.48 304.25,311.85,9.48 307.10,307.10,9.48 311.85,304.25,9.48 318.50,303.30,9.48" />
    </edge>
    <edge id=":C_22" function="internal">
        <lane id=":C_22_0" index="0" speed="3.65" length="3.23" shape="304.10,317.30,9.48 304.90,316.90,9.48 305.70,317.30,9.48 306.50,318.50,9.48" />
    </edge>
    <edge id=":C_5" function="internal">
        <lane id=":C_5_0" index="0" speed="6.51" length="9.03" shape="318.50,312.90,9.48 316.05,313.25,9.48 314.30,314.30,9.48 313.25,316.05,9.48 312.90,318.50,9.48" />
    </edge>
    <edge id=":C_6" function="internal">
        <lane id=":C_6_0" index="0" speed="13.41" length="24.27" shape="318.50,312.90,9.48 311.05,312.40,9.48 305.72,311.30,9.48 300.77,310.20,9.48 294.50,309.70,9.48" />
        <lane id=":C_6_1" index="1" speed="13.41" length="24.27" shape="318.50,309.70,9.48 311.05,309.20,9.48 305.72,308.10,9.48 300.77,307.00,9.48 294.50,306.50,9.48" />
    </edge>
    <edge id=":C_8" function="internal">
        <lane id=":C_8_0" index="0" speed="10.36" length="7.35" shape="318.50,306.50,9.48 311.85,305.55,9.48 311.32,305.23,9.48" />
    </edge>
    <edge id=":C_9" function="internal">
        <lane id=":C_9_0" index="0" speed="3.65" length="1.44" shape="318.50,306.50,9.48 317.30,305.70,9.48" />
    </edge>
    <edge id=":C_23" function="internal">
        <lane id=":C_23_0" index="0" speed="10.36" length="17.17" shape="311.32,305.23,9.48 307.10,302.70,9.48 304.25,297.95,9.48 303.30,291.30,9.48" />
    </edge>
    <edge id=":C_24" function="internal">
        <lane id=":C_24_0" index="0" speed="3.65" length="3.23" shape="317.30,305.70,9.48 316.90,304.90,9.48 317.30,304.10,9.48 318.50,303.30,9.48" />
    </edge>
    <edge id=":C_10" function="internal">
        <lane id=":C_10_0" index="0" speed="7.33" length="11.73" shape="312.90,291.30,9.48 313.25,295.15,9.48 314.30,297.90,9.48 316.05,299.55,9.48 318.50,300.10,9.48" />
    </edge>
    <edge id=":C_11" function="internal">
        <lane id=":C_11_0" index="0" speed="13.41" length="27.20" shape="312.90,291.30,9.48 312.90,318.50,9.48" />
        <lane id=":C_11_1" index="1" speed="13.41" length="27.20" shape="309.70,291.30,9.48 309.70,318.50,9.48" />
        <lane id=":C_11_2" index="2" speed="13.41" length="27.20" shape="306.50,291.30,9.48 306.50,318.50,9.48" />
    </edge>
    <edge id=":C_14" function="internal">
        <lane id=":C_14_0" index="0" speed="9.84" length="6.30" shape="306.50,291.30,9.48 305.80,297.56,9.48" />
    </edge>
    <edge id=":C_15" function="internal">
        <lane id=":C_15_0" index="0" speed="3.65" length="1.44" shape="306.50,291.30,9.48 305.70,292.50,9.48" />
    </edge>
    <edge id=":C_25" function="internal">
        <lane id=":C_25_0" index="0" speed="9.84" length="15.70" shape="305.80,297.56,9.48 305.75,297.95,9.48 303.50,302.70,9.48 299.75,305.55,9.48 294.50,306.50,9.48" />
    </edge>
    <edge id=":C_26" function="internal">
        <lane id=":C_26_0" index="0" speed="3.65" length="3.23" shape="305.70,292.50,9.48 304.90,292.90,9.48 304.10,292.50,9.48 303.30,291.30,9.48" />
    </edge>
    <edge id=":C_16" function="internal">
        <lane id=":C_16_0" index="0" speed="6.51" length="9.03" shape="294.50,296.90,9.48 296.95,296.55,9.48 298.70,295.50,9.48 299.75,293.75,9.48 300.10,291.30,9.48" />
    </edge>
    <edge id=":C_17" function="internal">
        <lane id=":C_17_0" index="0" speed="13.41" length="24.27" shape="294.50,296.90,9.48 301.96,297.40,9.48 307.29,298.50,9.48 312.24,299.60,9.48 318.50,300.10,9.48" />
        <lane id=":C_17_1" index="1" speed="13.41" length="24.27" shape="294.50,300.10,9.48 301.96,300.60,9.48 307.29,301.70,9.48 312.24,302.80,9.48 318.50,303.30,9.48" />
    </edge>
    <edge id=":C_19" function="internal">
        <lane id=":C_19_0" index="0" speed="9.84" length="5.46" shape="294.50,303.30,9.48 299.75,304.25,9.48 299.86,304.33,9.48" />
    </edge>
    <edge id=":C_20" function="internal">
        <lane id=":C_20_0" index="0" speed="3.65" length="1.44" shape="294.50,303.30,9.48 295.70,304.10,9.48" />
    </edge>
    <edge id=":C_27" function="internal">
        <lane id=":C_27_0" index="0" speed="9.84" length="16.53" shape="299.86,304.33,9.48 303.50,307.10,9.48 305.75,311.85,9.48 306.50,318.50,9.48" />
    </edge>
    <edge id=":C_28" function="internal">
        <lane id=":C_28_0" index="0" speed="3.65" length="3.23" shape="295.70,304.10,9.48 296.10,304.90,9.48 295.70,305.70,9.48 294.50,306.50,9.48" />
    </edge>
    <edge id=":CA_0" function="internal">
        <lane id=":CA_0_0" index="0" speed="3.65" length="4.67" shape="609.81,303.30,9.48 611.01,304.10,9.48 611.41,304.90,9.48 611.01,305.70,9.48 609.81,306.50,9.48" />
    </edge>
    <edge id=":CB_0" function="internal">
        <lane id=":CB_0_0" index="0" speed="3.65" length="4.67" shape="303.30,-0.00,9.48 304.10,-1.20,9.48 304.90,-1.60,9.48 305.70,-1.20,9.48 306.50,0.00,9.48" />
    </edge>
    <edge id=":CC_0" function="internal">
        <lane id=":CC_0_0" index="0" speed="3.65" length="4.67" shape="-0.00,306.50,9.48 -1.20,305.70,9.48 -1.60,304.90,9.48 -1.20,304.10,9.48 0.00,303.30,9.48" />
    </edge>
    <edge id=":D_0" function="internal">
        <lane id=":D_0_0" index="0" speed="6.51" length="9.03" shape="156.52,617.01,4.83 156.17,614.56,4.83 155.12,612.81,4.83 153.37,611.76,4.83 150.92,611.41,4.83" />
    </edge>
    <edge id=":D_1" function="internal">
        <lane id=":D_1_0" index="0" speed="8.94" length="14.40" shape="156.52,617.01,4.83 156.52,602.61,4.83" />
    </edge>
    <edge id=":D_2" function="internal">
        <lane id=":D_2_0" index="0" speed="8.00" length="4.07" shape="156.52,617.01,4.83 157.07,613.16,4.83 157.16,613.01,4.83" />
    </edge>
    <edge id=":D_3" function="internal">
        <lane id=":D_3_0" index="0" speed="3.65" length="1.44" shape="156.52,617.01,4.83 157.32,615.81,4.83" />
    </edge>
    <edge id=":D_16" function="internal">
        <lane id=":D_16_0" index="0" speed="8.00" length="10.13" shape="157.16,613.01,4.83 158.72,610.41,4.83 161.47,608.76,4.83 165.32,608.21,4.83" />
    </edge>
    <edge id=":D_17" function="internal">
        <lane id=":D_17_0" index="0" speed="3.65" length="3.23" shape="157.32,615.81,4.83 158.12,615.41,4.83 158.92,615.81,4.83 159.72,617.01,4.83" />
    </edge>
    <edge id=":D_4" function="internal">
        <lane id=":D_4_0" index="0" speed="6.51" length="9.03" shape="165.32,611.41,4.83 162.87,611.76,4.83 161.12,612.81,4.83 160.07,614.56,4.83 159.72,617.01,4.83" />
    </edge>
    <edge id=":D_5" function="internal">
        <lane id=":D_5_0" index="0" speed="8.94" length="14.40" shape="165.32,611.41,4.83 150.92,611.41,4.83" />
    </edge>
    <edge id=":D_6" function="internal">
        <lane id=":D_6_0" index="0" speed="8.00" length="4.07" shape="165.32,611.41,4.83 161.47,610.86,4.83 161.32,610.77,4.83" />
    </edge>
    <edge id=":D_7" function="internal">
        <lane id=":D_7_0" index="0" speed="3.65" length="1.44" shape="165.32,611.41,4.83 164.12,610.61,4.83" />
    </edge>
    <edge id=":D_18" function="internal">
        <lane id=":D_18_0" index="0" speed="8.00" length="10.13" shape="161.32,610.77,4.83 158.72,609.21,4.83 157.07,606.46,4.83 156.52,602.61,4.83" />
    </edge>
    <edge id=":D_19" function="internal">
        <lane id=":D_19_0" index="0" speed="3.65" length="3.23" shape="164.12,610.61,4.83 163.72,609.81,4.83 164.12,609.01,4.83 165.32,608.21,4.83" />
    </edge>
    <edge id=":D_8" function="internal">
        <lane id=":D_8_0" index="0" speed="6.51" length="9.03" shape="159.72,602.61,4.83 160.07,605.06,4.83 161.12,606.81,4.83 162.87,607.86,4.83 165.32,608.21,4.83" />
    </edge>
    <edge id=":D_9" function="internal">
        <lane id=":D_9_0" index="0" speed="8.94" length="14.40" shape="159.72,602.61,4.83 159.72,617.01,4.83" />
    </edge>
    <edge id=":D_10" function="internal">
        <lane id=":D_10_0" index="0" speed="8.00" length="4.07" shape="159.72,602.61,4.83 159.17,606.46,4.83 159.08,606.61,4.83" />
    </edge>
    <edge id=":D_11" function="internal">
        <lane id=":D_11_0" index="0" speed="3.65" length="1.44" shape="159.72,602.61,4.83 158.92,603.81,4.83" />
    </edge>
    <edge id=":D_20" function="internal">
        <lane id=":D_20_0" index="0" speed="8.00" length="10.13" shape="159.08,606.61,4.83 157.52,609.21,4.83 154.77,610.86,4.83 150.92,611.41,4.83" />
    </edge>
    <edge id=":D_21" function="internal">
        <lane id=":D_21_0" index="0" speed="3.65" length="3.23" shape="158.92,603.81,4.83 158.12,604.21,4.83 157.32,603.81,4.83 156.52,602.61,4.83" />
    </edge>
    <edge id=":D_12" function="internal">
        <lane id=":D_12_0" index="0" speed="6.51" length="9.03" shape="150.92,608.21,4.83 153.37,607.86,4.83 155.12,606.81,4.83 156.17,605.06,4.83 156.52,602.61,4.83" />
    </edge>
    <edge id=":D_13" function="internal">
        <lane id=":D_13_0" index="0" speed="8.94" length="14.40" shape="150.92,608.21,4.83 165.32,608.21,4.83" />
    </edge>
    <edge id=":D_14" function="internal">
        <lane id=":D_14_0" index="0" speed="8.00" length="4.07" shape="150.92,608.21,4.83 154.77,608.76,4.83 154.92,608.85,4.83" />
    </edge>
    <edge id=":D_15" function="internal">
        <lane id=":D_15_0" index="0" speed="3.65" length="1.44" shape="150.92,608.21,4.83 152.12,609.01,4.83" />
    </edge>
    <edge id=":D_22" function="internal">
        <lane id=":D_22_0" index="0" speed="8.00" length="10.13" shape="154.92,608.85,4.83 157.52,610.41,4.83 159.17,613.16,4.83 159.72,617.01,4.83" />
    </edge>
    <edge id=":D_23" function="internal">
        <lane id=":D_23_0" index="0" speed="3.65" length="3.23" shape="152.12,609.01,4.83 152.52,609.81,4.83 152.12,610.61,4.83 150.92,611.41,4.83" />
    </edge>
    <edge id=":DA_0" function="internal">
        <lane id=":DA_0_0" index="0" speed="3.65" length="4.67" shape="156.52,463.02,4.83 157.32,461.82,4.83 158.12,461.42,4.83 158.92,461.82,4.83 159.72,463.02,4.83" />
    </edge>
    <edge id=":DB_0" function="internal">
        <lane id=":DB_0_0" index="0" speed="3.65" length="4.67" shape="11.33,611.41,4.83 10.13,610.61,4.83 9.73,609.81,4.83 10.13,609.01,4.83 11.33,608.21,4.83" />
    </edge>
    <edge id=":DC_0" function="internal">
        <lane id=":DC_0_0" index="0" speed="3.65" length="4.67" shape="159.72,756.60,4.83 158.92,757.80,4.83 158.12,758.20,4.83 157.32,757.80,4.83 156.52,756.60,4.83" />
    </edge>
    <edge id=":TL_0" function="internal">
        <lane id=":TL_0_0" index="0" speed="6.51" length="9.03" shape="296.90,617.01,-0.19 296.55,614.56,-0.14 295.50,612.81,-0.09 293.75,611.76,-0.05 291.30,611.41" />
    </edge>
    <edge id=":TL_1" function="internal">
        <lane id=":TL_1_0" index="0" speed="13.41" length="14.87" shape="296.90,617.01,-0.19 297.40,612.69,-0.13 298.50,609.81,-0.09 299.60,606.93,-0.05 300.10,602.61" />
        <lane id=":TL_1_1" index="1" speed="13.41" length="14.87" shape="300.10,617.01,-0.19 300.60,612.69,-0.13 301.70,609.81,-0.09 302.80,606.93,-0.05 303.30,602.61" />
    </edge>
    <edge id=":TL_3" function="internal">
        <lane id=":TL_3_0" index="0" speed="9.32" length="3.97" shape="303.30,617.01,-0.19 304.25,613.16,-0.15" />
    </edge>
    <edge id=":TL_12" function="internal">
        <lane id=":TL_12_0" index="0" speed="9.32" length="15.66" shape="304.25,613.16,-0.15 307.10,610.41,-0.11 311.85,608.76,-0.06 318.50,608.21" />
    </edge>
    <edge id=":TL_4" function="internal">
        <lane id=":TL_4_0" index="0" speed="7.33" length="11.73" shape="318.50,611.41 314.65,611.76,-0.06 311.90,612.81,-0.10 310.25,614.56,-0.14 309.70,617.01,-0.18" />
    </edge>
    <edge id=":TL_5" function="internal">
        <lane id=":TL_5_0" index="0" speed="8.94" length="27.20" shape="318.50,611.41 291.30,611.41" />
    </edge>
    <edge id=":TL_6" function="internal">
        <lane id=":TL_6_0" index="0" speed="6.51" length="9.03" shape="312.90,602.61 313.25,605.06 314.30,606.81 316.05,607.86 318.50,608.21" />
    </edge>
    <edge id=":TL_7" function="internal">
        <lane id=":TL_7_0" index="0" speed="13.41" length="14.87" shape="312.90,602.61 312.40,606.93,-0.05 311.30,609.81,-0.09 310.20,612.69,-0.13 309.70,617.01,-0.18" />
        <lane id=":TL_7_1" index="1" speed="13.41" length="14.87" shape="309.70,602.61 309.20,606.93,-0.05 308.10,609.81,-0.09 307.00,612.69,-0.13 306.50,617.01,-0.18" />
    </edge>
    <edge id=":TL_9" function="internal">
        <lane id=":TL_9_0" index="0" speed="9.32" length="3.97" shape="306.50,602.61 305.55,606.46" />
    </edge>
    <edge id=":TL_13" function="internal">
        <lane id=":TL_13_0" index="0" speed="9.32" length="15.66" shape="305.55,606.46 302.70,609.21 297.95,610.86 291.30,611.41" />
    </edge>
    <edge id=":TL_10" function="internal">
        <lane id=":TL_10_0" index="0" speed="7.33" length="11.73" shape="291.30,608.21 295.15,607.86 297.90,606.81 299.55,605.06 300.10,602.61" />
    </edge>
    <edge id=":TL_11" function="internal">
        <lane id=":TL_11_0" index="0" speed="8.94" length="27.20" shape="291.30,608.21 318.50,608.21" />
    </edge>

    <edge id="A2AA" from="A" to="AA" priority="-1">
        <lane id="A2AA_0" index="0" speed="13.41" length="285.29" shape="291.30,913.50,-7.38 6.02,913.50,-7.38" />
        <lane id="A2AA_1" index="1" speed="13.41" length="285.29" shape="291.30,910.30,-7.38 6.02,910.30,-7.38" />
    </edge>
    <edge id="A2AB" from="A" to="AB" priority="-1">
        <lane id="A2AB_0" index="0" speed="13.41" length="285.29" shape="309.70,922.30,-7.38 309.70,1207.59,-7.38" />
        <lane id="A2AB_1" index="1" speed="13.41" length="285.29" shape="306.50,922.30,-7.38 306.50,1207.59,-7.38" />
    </edge>
    <edge id="A2AC" from="A" to="AC" priority="-1">
        <lane id="A2AC_0" index="0" speed="13.41" length="288.49" shape="315.30,903.90,-7.38 603.79,903.90,-7.38" />
        <lane id="A2AC_1" index="1" speed="13.41" length="288.49" shape="315.30,907.10,-7.38 603.79,907.10,-7.38" />
    </edge>
    <edge id="A2TL" from="A" to="TL" priority="-1">
        <lane id="A2TL_0" index="0" speed="13.41" length="278.18" shape="296.90,895.10,-7.38 296.90,617.01,-0.19" />
        <lane id="A2TL_1" index="1" speed="13.41" length="278.18" shape="300.10,895.10,-7.38 300.10,617.01,-0.19" />
        <lane id="A2TL_2" index="2" speed="13.41" length="278.18" shape="303.30,895.10,-7.38 303.30,617.01,-0.19" />
    </edge>
    <edge id="AA2A" from="AA" to="A" priority="-1">
        <lane id="AA2A_0" index="0" speed="13.41" length="285.29" shape="6.02,900.70,-7.38 291.30,900.70,-7.38" />
        <lane id="AA2A_1" index="1" speed="13.41" length="285.29" shape="6.02,903.90,-7.38 291.30,903.90,-7.38" />
        <lane id="AA2A_2" index="2" speed="13.41" length="285.29" shape="6.02,907.10,-7.38 291.30,907.10,-7.38" />
    </edge>
    <edge id="AB2A" from="AB" to="A" priority="-1">
        <lane id="AB2A_0" index="0" speed="13.41" length="285.29" shape="296.90,1207.59,-7.38 296.90,922.30,-7.38" />
        <lane id="AB2A_1" index="1" speed="13.41" length="285.29" shape="300.10,1207.59,-7.38 300.10,922.30,-7.38" />
        <lane id="AB2A_2" index="2" speed="13.41" length="285.29" shape="303.30,1207.59,-7.38 303.30,922.30,-7.38" />
    </edge>
    <edge id="AC2A" from="AC" to="A" priority="-1">
        <lane id="AC2A_0" index="0" speed="13.41" length="288.49" shape="603.79,916.70,-7.38 315.30,916.70,-7.38" />
        <lane id="AC2A_1" index="1" speed="13.41" length="288.49" shape="603.79,913.50,-7.38 315.30,913.50,-7.38" />
        <lane id="AC2A_2" index="2" speed="13.41" length="288.49" shape="603.79,910.30,-7.38 315.30,910.30,-7.38" />
    </edge>
    <edge id="B2BA" from="B" to="BA" priority="-1">
        <lane id="B2BA_0" index="0" speed="8.94" length="199.72" shape="513.42,617.01,-4.10 513.42,816.73,-4.10" />
    </edge>
    <edge id="B2BB" from="B" to="BB" priority="-1">
        <lane id="B2BB_0" index="0" speed="8.94" length="199.72" shape="519.02,608.21,-4.10 718.74,608.21,-4.10" />
    </edge>
    <edge id="B2BC" from="B" to="BC" priority="-1">
        <lane id="B2BC_0" index="0" speed="8.94" length="199.72" shape="510.22,602.61,-4.10 510.22,402.89,-4.10" />
    </edge>
    <edge id="B2TL" from="B" to="TL" priority="-1">
        <lane id="B2TL_0" index="0" speed="8.94" length="186.16" shape="504.62,611.41,-3.96 318.50,611.41" />
    </edge>
    <edge id="BA2B" from="BA" to="B" priority="-1">
        <lane id="BA2B_0" index="0" speed="8.94" length="199.72" shape="510.22,816.73,-4.10 510.22,617.01,-4.10" />
    </edge>
    <edge id="BB2B" from="BB" to="B" priority="-1">
        <lane id="BB2B_0" index="0" speed="8.94" length="199.72" shape="718.74,611.41,-4.10 519.02,611.41,-4.10" />
    </edge>
    <edge id="BC2B" from="BC" to="B" priority="-1">
        <lane id="BC2B_0" index="0" speed="8.94" length="199.72" shape="513.42,402.89,-4.10 513.42,602.61,-4.10" />
    </edge>
    <edge id="C2CA" from="C" to="CA" priority="-1">
        <lane id="C2CA_0" index="0" speed="13.41" length="291.30" shape="318.50,300.10,9.48 609.81,300.10,9.48" />