<net xmlns:xsi="http://www.w3.org/2001/XMLSchema-instance" version="1.9" junctionCornerDetail="5" limitTurnSpeed="5.50" xsi:noNamespaceSchemaLocation="http://sumo.dlr.de/xsd/net_file.xsd">

    <location netOffset="510.42,402.55" convBoundary="0.00,0.00,886.42,755.30" origBoundary="-510.42,-402.55,376.00,352.75" projParameter="!" />

    <edge id=":A_0" function="internal">
        <lane id=":A_0_0" index="0" speed="6.51" length="9.03" shape="505.62,589.33,-0.59 505.27,586.88,-0.59 504.22,585.13,-0.59 502.47,584.08,-0.59 500.02,583.73,-0.59" />
    </edge>
    <edge id=":A_1" function="internal">
        <lane id=":A_1_0" index="0" speed="11.18" length="20.80" shape="505.62,589.33,-0.59 505.62,568.53,-0.56" />
        <lane id=":A_1_1" index="1" speed="11.18" length="20.80" shape="508.82,589.33,-0.59 508.82,568.53,-0.56" />
    </edge>
    <edge id=":A_3" function="internal">
        <lane id=":A_3_0" index="0" speed="9.26" length="5.01" shape="508.82,589.33,-0.59 509.53,584.36,-0.59" />
    </edge>
    <edge id=":A_4" function="internal">
        <lane id=":A_4_0" index="0" speed="3.65" length="1.44" shape="508.82,589.33,-0.59 509.62,588.13,-0.59" />
    </edge>
    <edge id=":A_20" function="internal">
        <lane id=":A_20_0" index="0" speed="9.26" length="14.34" shape="509.53,584.36,-0.59 509.57,584.08,-0.59 511.82,580.33,-0.59 515.57,578.08,-0.59 520.82,577.33,-0.59" />
    </edge>
    <edge id=":A_21" function="internal">
        <lane id=":A_21_0" index="0" speed="3.65" length="3.23" shape="509.62,588.13,-0.59 510.42,587.73,-0.59 511.22,588.13,-0.59 512.02,589.33,-0.59" />
    </edge>
    <edge id=":A_5" function="internal">
        <lane id=":A_5_0" index="0" speed="6.51" length="9.03" shape="520.82,583.73,-0.59 518.37,584.08,-0.59 516.62,585.13,-0.59 515.57,586.88,-0.59 515.22,589.33,-0.59" />
    </edge>
    <edge id=":A_6" function="internal">
        <lane id=":A_6_0" index="0" speed="11.18" length="20.80" shape="520.82,583.73,-0.59 500.02,583.73,-0.59" />
        <lane id=":A_6_1" index="1" speed="11.18" length="20.80" shape="520.82,580.53,-0.59 500.02,580.53,-0.59" />
    </edge>
    <edge id=":A_8" function="internal">
        <lane id=":A_8_0" index="0" speed="9.26" length="5.01" shape="520.82,580.53,-0.59 515.85,579.82,-0.58" />
    </edge>
    <edge id=":A_9" function="internal">
        <lane id=":A_9_0" index="0" speed="3.65" length="1.44" shape="520.82,580.53,-0.59 519.62,579.73,-0.59" />
    </edge>
    <edge id=":A_22" function="internal">
        <lane id=":A_22_0" index="0" speed="9.26" length="14.34" shape="515.85,579.82,-0.58 515.57,579.78,-0.58 511.82,577.53,-0.57 509.57,573.78,-0.57 508.82,568.53,-0.56" />
    </edge>
    <edge id=":A_23" function="internal">
        <lane id=":A_23_0" index="0" speed="3.65" length="3.23" shape="519.62,579.73,-0.59 519.22,578.93,-0.59 519.62,578.13,-0.59 520.82,577.33,-0.59" />
    </edge>
    <edge id=":A_10" function="internal">
        <lane id=":A_10_0" index="0" speed="6.51" length="9.03" shape="515.22,568.53,-0.56 515.57,570.98,-0.57 516.62,572.73,-0.57 518.37,573.78,-0.58 520.82,574.13,-0.59" />
    </edge>
    <edge id=":A_11" function="internal">
        <lane id=":A_11_0" index="0" speed="11.18" length="20.80" shape="515.22,568.53,-0.56 515.22,589.33,-0.59" />
        <lane id=":A_11_1" index="1" speed="11.18" length="20.80" shape="512.02,568.53,-0.56 512.02,589.33,-0.59" />
    </edge>
    <edge id=":A_13" function="internal">
        <lane id=":A_13_0" index="0" speed="9.26" length="5.01" shape="512.02,568.53,-0.56 511.31,573.49,-0.57" />
    </edge>
    <edge id=":A_14" function="internal">
        <lane id=":A_14_0" index="0" speed="3.65" length="1.44" shape="512.02,568.53,-0.56 511.22,569.73,-0.56" />
    </edge>
    <edge id=":A_24" function="internal">
        <lane id=":A_24_0" index="0" speed="9.26" length="14.34" shape="511.31,573.49,-0.57 511.27,573.78,-0.57 509.02,577.53,-0.57 505.27,579.78,-0.58 500.02,580.53,-0.59" />
    </edge>
    <edge id=":A_25" function="internal">
        <lane id=":A_25_0" index="0" speed="3.65" length="3.23" shape="511.22,569.73,-0.56 510.42,570.13,-0.56 509.62,569.73,-0.56 508.82,568.53,-0.56" />
    </edge>
    <edge id=":A_15" function="internal">
        <lane id=":A_15_0" index="0" speed="6.51" length="9.03" shape="500.02,574.13,-0.59 502.47,573.78,-0.58 504.22,572.73,-0.57 505.27,570.98,-0.57 505.62,568.53,-0.56" />
    </edge>
    <edge id=":A_16" function="internal">
        <lane id=":A_16_0" index="0" speed="11.18" length="20.80" shape="500.02,574.13,-0.59 520.82,574.13,-0.59" />
        <lane id=":A_16_1" index="1" speed="11.18" length="20.80" shape="500.02,577.33,-0.59 520.82,577.33,-0.59" />
    </edge>
    <edge id=":A_18" function="internal">
        <lane id=":A_18_0" index="0" speed="9.26" length="5.01" shape="500.02,577.33,-0.59 504.98,578.04,-0.59" />
    </edge>
    <edge id=":A_19" function="internal">
        <lane id=":A_19_0" index="0" speed="3.65" length="1.44" shape="500.02,577.33,-0.59 501.22,578.13,-0.59" />
    </edge>
    <edge id=":A_26" function="internal">
        <lane id=":A_26_0" index="0" speed="9.26" length="14.34" shape="504.98,578.04,-0.59 505.27,578.08,-0.59 509.02,580.33,-0.59 511.27,584.08,-0.59 512.02,589.33,-0.59" />
    </edge>
    <edge id=":A_27" function="internal">
        <lane id=":A_27_0" index="0" speed="3.65" length="3.23" shape="501.22,578.13,-0.59 501.62,578.93,-0.59 501.22,579.73,-0.59 500.02,580.53,-0.59" />
    </edge>
    <edge id=":AA_0" function="internal">
        <lane id=":AA_0_0" index="0" speed="3.65" length="4.67" shape="334.04,580.53,-0.59 332.84,579.73,-0.59 332.44,578.93,-0.59 332.84,578.13,-0.59 334.04,577.33,-0.59" />
    </edge>
    <edge id=":AB_0" function="internal">
        <lane id=":AB_0_0" index="0" speed="3.65" length="4.67" shape="512.02,755.30,-0.59 511.22,756.50,-0.59 510.42,756.90,-0.59 509.62,756.50,-0.59 508.82,755.30,-0.59" />
    </edge>
    <edge id=":AC_0" function="internal">
        <lane id=":AC_0_0" index="0" speed="3.65" length="4.67" shape="686.79,577.33,-0.59 687.99,578.13,-0.59 688.39,578.93,-0.59 687.99,579.73,-0.59 686.79,580.53,-0.59" />
    </edge>
    <edge id=":B_0" function="internal">
        <lane id=":B_0_0" index="0" speed="6.51" length="9.03" shape="699.46,305.42,1.39 697.93,303.47,1.37 696.15,302.48,1.36 694.11,302.44,1.34 691.81,303.37,1.32" />
    </edge>
    <edge id=":B_1" function="internal">
        <lane id=":B_1_0" index="0" speed="11.18" length="20.80" shape="699.46,305.42,1.39 689.06,287.40,1.39" />
        <lane id=":B_1_1" index="1" speed="11.18" length="20.80" shape="702.23,303.82,1.39 691.83,285.80,1.39" />
    </edge>
    <edge id=":B_3" function="internal">
        <lane id=":B_3_0" index="0" speed="9.26" length="5.01" shape="702.23,303.82,1.39 700.36,299.16,1.39" />
    </edge>
    <edge id=":B_4" function="internal">
        <lane id=":B_4_0" index="0" speed="3.65" length="1.44" shape="702.23,303.82,1.39 702.33,302.38,1.39" />
    </edge>
    <edge id=":B_20" function="internal">
        <lane id=":B_20_0" index="0" speed="9.26" length="14.34" shape="700.36,299.16,1.39 700.26,298.89,1.39 700.33,294.52,1.39 702.45,290.70,1.39 706.62,287.42,1.39" />
    </edge>
    <edge id=":B_21" function="internal">
        <lane id=":B_21_0" index="0" speed="3.65" length="3.23" shape="702.33,302.38,1.39 702.82,301.63,1.39 703.71,301.58,1.39 705.00,302.22,1.39" />
    </edge>
    <edge id=":B_5" function="internal">
        <lane id=":B_5_0" index="0" speed="6.51" length="9.03" shape="709.82,292.97,1.39 707.88,294.49,1.39 706.89,296.28,1.39 706.85,298.32,1.39 707.78,300.62,1.39" />
    </edge>
    <edge id=":B_6" function="internal">
        <lane id=":B_6_0" index="0" speed="11.18" length="20.80" shape="709.82,292.97,1.39 691.81,303.37,1.32" />
        <lane id=":B_6_1" index="1" speed="11.18" length="20.80" shape="708.22,290.20,1.39 690.21,300.60,1.32" />
    </edge>
    <edge id=":B_8" function="internal">
        <lane id=":B_8_0" index="0" speed="9.26" length="5.01" shape="708.22,290.20,1.39 703.57,292.06,1.39" />
    </edge>
    <edge id=":B_9" function="internal">
        <lane id=":B_9_0" index="0" speed="3.65" length="1.44" shape="708.22,290.20,1.39 706.79,290.10,1.39" />
    </edge>
    <edge id=":B_22" function="internal">
        <lane id=":B_22_0" index="0" speed="9.26" length="14.34" shape="703.57,292.06,1.39 703.30,292.17,1.39 698.93,292.10,1.39 695.11,289.97,1.39 691.83,285.80,1.39" />
    </edge>
    <edge id=":B_23" function="internal">
        <lane id=":B_23_0" index="0" speed="3.65" length="3.23" shape="706.79,290.10,1.39 706.04,289.61,1.39 705.99,288.72,1.39 706.62,287.42,1.39" />
    </edge>
    <edge id=":B_10" function="internal">
        <lane id=":B_10_0" index="0" speed="6.51" length="9.03" shape="697.38,282.60,1.39 698.90,284.55,1.39 700.69,285.54,1.39 702.73,285.57,1.39 705.02,284.65,1.39" />
    </edge>
    <edge id=":B_11" function="internal">
        <lane id=":B_11_0" index="0" speed="11.18" length="20.80" shape="697.38,282.60,1.39 707.78,300.62,1.39" />
        <lane id=":B_11_1" index="1" speed="11.18" length="20.80" shape="694.60,284.20,1.39 705.00,302.22,1.39" />
    </edge>
    <edge id=":B_13" function="internal">
        <lane id=":B_13_0" index="0" speed="9.26" length="5.01" shape="694.60,284.20,1.39 696.47,288.86,1.37" />
    </edge>
    <edge id=":B_14" function="internal">
        <lane id=":B_14_0" index="0" speed="3.65" length="1.44" shape="694.60,284.20,1.39 694.51,285.64,1.39" />
    </edge>
    <edge id=":B_24" function="internal">
        <lane id=":B_24_0" index="0" speed="9.26" length="14.34" shape="696.47,288.86,1.37 696.58,289.12,1.37 696.51,293.50,1.36 694.38,297.32,1.34 690.21,300.60,1.32" />
    </edge>
    <edge id=":B_25" function="internal">
        <lane id=":B_25_0" index="0" speed="3.65" length="3.23" shape="694.51,285.64,1.39 694.02,286.39,1.39 693.13,286.44,1.39 691.83,285.80,1.39" />
    </edge>
    <edge id=":B_15" function="internal">
        <lane id=":B_15_0" index="0" speed="6.51" length="9.03" shape="687.01,295.05,1.32 688.96,293.52,1.34 689.95,291.74,1.36 689.98,289.70,1.37 689.06,287.40,1.39" />
    </edge>
    <edge id=":B_16" function="internal">
        <lane id=":B_16_0" index="0" speed="11.18" length="20.80" shape="687.01,295.05,1.32 705.02,284.65,1.39" />
        <lane id=":B_16_1" index="1" speed="11.18" length="20.80" shape="688.61,297.82,1.32 706.62,287.42,1.39" />
    </edge>
    <edge id=":B_18" function="internal">
        <lane id=":B_18_0" index="0" speed="9.26" length="5.01" shape="688.61,297.82,1.32 693.26,295.96,1.34" />
    </edge>
    <edge id=":B_19" function="internal">
        <lane id=":B_19_0" index="0" speed="3.65" length="1.44" shape="688.61,297.82,1.32 690.05,297.92,1.32" />
    </edge>
    <edge id=":B_26" function="internal">
        <lane id=":B_26_0" index="0" speed="9.26" length="14.34" shape="693.26,295.96,1.34 693.53,295.85,1.34 697.91,295.92,1.36 701.73,298.04,1.37 705.00,302.22,1.39" />
    </edge>
    <edge id=":B_27" function="internal">
        <lane id=":B_27_0" index="0" speed="3.65" length="3.23" shape="690.05,297.92,1.32 690.80,298.41,1.32 690.85,299.30,1.32 690.21,300.60,1.32" />
    </edge>
    <edge id=":BA_0" function="internal">
        <lane id=":BA_0_0" index="0" speed="3.65" length="4.67" shape="808.35,481.21,1.39 808.25,482.65,1.39 807.76,483.40,1.39 806.87,483.45,1.39 805.58,482.81,1.39" />
    </edge>
    <edge id=":BB_0" function="internal">
        <lane id=":BB_0_0" index="0" speed="3.65" length="4.67" shape="885.62,184.08,1.39 887.06,184.17,1.39 887.81,184.67,1.39 887.86,185.56,1.39 887.22,186.85,1.39" />
    </edge>
    <edge id=":BC_0" function="internal">
        <lane id=":BC_0_0" index="0" speed="3.65" length="4.67" shape="588.49,106.81,1.39 588.58,105.37,1.39 589.08,104.62,1.39 589.97,104.57,1.39 591.26,105.21,1.39" />
    </edge>
    <edge id=":C_0" function="internal">
        <lane id=":C_0_0" index="0" speed="6.51" length="9.03" shape="260.19,249.77,6.56 259.27,252.07,6.51 259.31,254.11,6.48 260.30,255.89,6.44 262.24,257.42,6.40" />
    </edge>
    <edge id=":C_1" function="internal">
        <lane id=":C_1_0" index="0" speed="8.94" length="14.40" shape="249.77,250.22,6.56 262.24,257.42,6.40" />
    </edge>
    <edge id=":C_2" function="internal">
        <lane id=":C_2_0" index="0" speed="7.33" length="11.73" shape="251.82,257.87,6.56 253.52,256.03,6.52 255.83,255.33,6.49 258.73,255.80,6.45 262.24,257.42,6.40" />
    </edge>
    <edge id=":TL_0" function="internal">
        <lane id=":TL_0_0" index="0" speed="10.78" length="15.96" shape="505.62,408.56,-0.02 506.09,404.44,-0.00 507.52,400.88,0.01 509.89,397.86,0.02 513.22,395.39,0.04" />
        <lane id=":TL_0_1" index="1" speed="9.62" length="12.60" shape="508.82,408.56,-0.02 509.19,405.31,-0.00 510.32,402.49,0.01 512.19,400.11,0.02 514.82,398.16,0.04" />
    </edge>
    <edge id=":TL_2" function="internal">
        <lane id=":TL_2_0" index="0" speed="6.75" length="5.88" shape="518.02,403.71,0.04 516.79,404.62,0.02 515.92,405.73,0.01 515.39,407.04,-0.00 515.22,408.56,-0.02" />
        <lane id=":TL_2_1" index="1" speed="8.31" length="9.24" shape="516.42,400.94,0.04 514.49,402.36,0.02 513.12,404.11,0.01 512.29,406.18,-0.00 512.02,408.56,-0.02" />
    </edge>
    <edge id=":TL_4" function="internal">
        <lane id=":TL_4_0" index="0" speed="9.00" length="10.94" shape="502.82,396.32 505.12,397.21,0.01 507.62,397.36,0.02 510.32,396.75,0.03 513.22,395.39,0.04" />
    </edge>

    <edge id="A2AA" from="A" to="AA" priority="-1">
        <lane id="A2AA_0" index="0" speed="11.18" length="165.98" shape="500.02,583.73,-0.59 334.04,583.73,-0.59" />
        <lane id="A2AA_1" index="1" speed="11.18" length="165.98" shape="500.02,580.53,-0.59 334.04,580.53,-0.59" />
    </edge>
    <edge id="A2AB" from="A" to="AB" priority="-1">
        <lane id="A2AB_0" index="0" speed="11.18" length="165.98" shape="515.22,589.33,-0.59 515.22,755.30,-0.59" />
        <lane id="A2AB_1" index="1" speed="11.18" length="165.98" shape="512.02,589.33,-0.59 512.02,755.30,-0.59" />
    </edge>
    <edge id="A2AC" from="A" to="AC" priority="-1">
        <lane id="A2AC_0" index="0" speed="11.18" length="165.98" shape="520.82,574.13,-0.59 686.79,574.13,-0.59" />
        <lane id="A2AC_1" index="1" speed="11.18" length="165.98" shape="520.82,577.33,-0.59 686.79,577.33,-0.59" />
    </edge>
    <edge id="A2TL" from="A" to="TL" priority="-1">
        <lane id="A2TL_0" index="0" speed="11.18" length="159.97" shape="505.62,568.53,-0.56 505.62,408.56,-0.02" />
        <lane id="A2TL_1" index="1" speed="11.18" length="159.97" shape="508.82,568.53,-0.56 508.82,408.56,-0.02" />
    </edge>
    <edge id="AA2A" from="AA" to="A" priority="-1">
        <lane id="AA2A_0" index="0" speed="11.18" length="165.98" shape="334.04,574.13,-0.59 500.02,574.13,-0.59" />
        <lane id="AA2A_1" index="1" speed="11.18" length="165.98" shape="334.04,577.33,-0.59 500.02,577.33,-0.59" />
    </edge>
    <edge id="AB2A" from="AB" to="A" priority="-1">
        <lane id="AB2A_0" index="0" speed="11.18" length="165.98" shape="505.62,755.30,-0.59 505.62,589.33,-0.59" />
        <lane id="AB2A_1" index="1" speed="11.18" length="165.98" shape="508.82,755.30,-0.59 508.82,589.33,-0.59" />
    </edge>
    <edge id="AC2A" from="AC" to="A" priority="-1">
        <lane id="AC2A_0" index="0" speed="11.18" length="165.98" shape="686.79,583.73,-0.59 520.82,583.73,-0.59" />
        <lane id="AC2A_1" index="1" speed="11.18" length="165.98" shape="686.79,580.53,-0.59 520.82,580.53,-0.59" />
    </edge>
    <edge id="B2BA" from="B" to="BA" priority="-1">
        <lane id="B2BA_0" index="0" speed="11.18" length="206.69" shape="707.78,300.62,1.39 811.12,479.61,1.39" />
        <lane id="B2BA_1" index="1" speed="11.18" length="206.69" shape="705.00,302.22,1.39 808.35,481.21,1.39" />
    </edge>
    <edge id="B2BB" from="B" to="BB" priority="-1">
        <lane id="B2BB_0" index="0" speed="11.18" length="206.69" shape="705.02,284.65,1.39 884.02,181.31,1.39" />
        <lane id="B2BB_1" index="1" speed="11.18" length="206.69" shape="706.62,287.42,1.39 885.62,184.08,1.39" />
    </edge>
    <edge id="B2BC" from="B" to="BC" priority="-1">
        <lane id="B2BC_0" index="0" speed="11.18" length="206.69" shape="689.06,287.40,1.39 585.72,108.41,1.39" />
        <lane id="B2BC_1" index="1" speed="11.18" length="206.69" shape="691.83,285.80,1.39 588.49,106.81,1.39" />
    </edge>
    <edge id="B2TL" from="B" to="TL" priority="-1">
        <lane id="B2TL_0" index="0" speed="11.18" length="200.69" shape="691.81,303.37,1.32 518.02,403.71,0.04" />
        <lane id="B2TL_1" index="1" speed="11.18" length="200.69" shape="690.21,300.60,1.32 516.42,400.94,0.04" />
    </edge>
    <edge id="BA2B" from="BA" to="B" priority="-1">
        <lane id="BA2B_0" index="0" speed="11.18" length="206.69" shape="802.80,484.41,1.39 699.46,305.42,1.39" />
        <lane id="BA2B_1" index="1" speed="11.18" length="206.69" shape="805.58,482.81,1.39 702.23,303.82,1.39" />
    </edge>
    <edge id="BB2B" from="BB" to="B" priority="-1">
        <lane id="BB2B_0" index="0" speed="11.18" length="206.69" shape="888.82,189.62,1.39 709.82,292.97,1.39" />
        <lane id="BB2B_1" index="1" speed="11.18" length="206.69" shape="887.22,186.85,1.39 708.22,290.20,1.39" />
    </edge>
    <edge id="BC2B" from="BC" to="B" priority="-1">
        <lane id="BC2B_0" index="0" speed="11.18" length="206.69" shape="594.03,103.61,1.39 697.38,282.60,1.39" />
        <lane id="BC2B_1" index="1" speed="11.18" length="206.69" shape="591.26,105.21,1.39 694.60,284.20,1.39" />
    </edge>
    <edge id="C2TL" from="C" to="TL" priority="-1">
        <lane id="C2TL_0" index="0" speed="8.94" length="277.86" shape="262.24,257.42,6.40 502.82,396.32" />
    </edge>
    <edge id="CA2C" from="CA" to="C" priority="-1">
        <lane id="CA2C_0" index="0" speed="8.94" length="287.49" shape="403.94,0.80,6.56 260.19,249.77,6.56" />
    </edge>
    <edge id="CB2C" from="CB" to="C" priority="-1">
        <lane id="CB2C_0" index="0" speed="8.94" length="287.49" shape="0.80,106.48,6.56 249.77,250.22,6.56" />
    </edge>
    <edge id="CC2C" from="CC" to="C" priority="-1">
        <lane id="CC2C_0" index="0" speed="8.94" length="290.69" shape="106.48,509.62,6.56 251.82,257.87,6.56" />
    </edge>
    <edge id="TL2A" from="TL" to="A" priority="-1">
        <lane id="TL2A_0" index="0" speed="11.18" length="159.97" shape="515.22,408.56,-0.02 515.22,568.53,-0.56" />
        <lane id="TL2A_1" index="1" speed="11.18" length="159.97" shape="512.02,408.56,-0.02 512.02,568.53,-0.56" />
    </edge>
    <edge id="TL2B" from="TL" to="B" priority="-1">
        <lane id="TL2B_0" index="0" speed="11.18" length="200.69" shape="513.22,395.39,0.04 687.01,295.05,1.32" />
        <lane id="TL2B_1" index="1" speed="11.18" length="200.69" shape="514.82,398.16,0.04 688.61,297.82,1.32" />
    </edge>

    <tlLogic id="A" type="static" programID="0" offset="0">
        <phase duration="42" state="GGGggrrrrrGGGggrrrrr" />
        <phase duration="3" state="yyyyyrrrrryyyyyrrrrr" />
        <phase duration="42" state="rrrrrGGGggrrrrrGGGgg" />
        <phase duration="3" state="rrrrryyyyyrrrrryyyyy" />
    </tlLogic>
    <tlLogic id="AA" type="static" programID="0" offset="0">
        <phase duration="82" state="G" />
        <phase duration="3" state="y" />
        <phase duration="5" state="r" />
    </tlLogic>
    <tlLogic id="AB" type="static" programID="0" offset="0">
        <phase duration="82" state="G" />
        <phase duration="3" state="y" />
        <phase duration="5" state="r" />
    </tlLogic>
    <tlLogic id="AC" type="static" programID="0" offset="0">
        <phase duration="82" state="G" />
        <phase duration="3" state="y" />
        <phase duration="5" state="r" />
    </tlLogic>
    <tlLogic id="B" type="static" programID="0" offset="0">
        <phase duration="42" state="rrrrrGGGggrrrrrGGGgg" />
        <phase duration="3" state="rrrrryyyyyrrrrryyyyy" />
        <phase duration="42" state="GGGggrrrrrGGGggrrrrr" />
        <phase duration="3" state="yyyyyrrrrryyyyyrrrrr" />
    </tlLogic>
    <tlLogic id="BA" type="static" programID="0" offset="0">
        <phase duration="82" state="G" />
        <phase duration="3" state="y" />
        <phase duration="5" state="r" />
    </tlLogic>
    <tlLogic id="BB" type="static" programID="0" offset="0">
        <phase duration="82" state="G" />
        <phase duration="3" state="y" />
        <phase duration="5" state="r" />
    </tlLogic>
    <tlLogic id="BC" type="static" programID="0" offset="0">
        <phase duration="82" state="G" />
        <phase duration="3" state="y" />
        <phase duration="5" state="r" />
    </tlLogic>
    <tlLogic id="C" type="static" programID="0" offset="0">
        <phase duration="27" state="rrG" />
        <phase duration="3" state="rry" />
        <phase duration="27" state="Grr" />
        <phase duration="3" state="yrr" />
        <phase duration="27" state="rGr" />
        <phase duration="3" state="ryr" />
    </tlLogic>
    <tlLogic id="TL" type="static" programID="0" offset="0">
        <phase duration="30" state="GGGGr" />
        <phase duration="3" state="yyyyr" />
        <phase duration="15" state="rrGGG" />
        <phase duration="3" state="rryyy" />
    </tlLogic>

    <junction id="A" type="traffic_light" x="510.42" y="578.93" z="-0.59" incLanes="AB2A_0 AB2A_1 AC2A_0 AC2A_1 TL2A_0 TL2A_1 AA2A_0 AA2A_1" intLanes=":A_0_0 :A_1_0 :A_1_1 :A_20_0 :A_21_0 :A_5_0 :A_6_0 :A_6_1 :A_22_0 :A_23_0 :A_10_0 :A_11_0 :A_11_1 :A_24_0 :A_25_0 :A_15_0 :A_16_0 :A_16_1 :A_26_0 :A_27_0" shape="504.02,589.33,-0.59 516.82,589.33,-0.59 517.26,587.11,-0.59 517.82,586.33,-0.59 518.59,585.77,-0.59 519.59,585.44,-0.59 520.82,585.33,-0.59 520.82,572.53,-0.59 518.59,572.08,-0.59 517.82,571.53,-0.59 517.26,570.75,-0.59 516.93,569.75,-0.59 516.82,568.53,-0.59 504.02,568.53,-0.59 503.57,570.75,-0.59 503.02,571.53,-0.59 502.24,572.08,-0.59 501.24,572.42,-0.59 500.02,572.53,-0.59 500.02,585.33,-0.59 502.24,585.77,-0.59 503.02,586.33,-0.59 503.57,587.11,-0.59 503.91,588.11,-0.59">
        <request index="0" response="00000000000000000000" foes="00000000000011000000" cont="0" />
        <request index="1" response="01000000000100000000" foes="01111110000111000000" cont="0" />
        <request index="2" response="01000000000100000000" foes="01111110000111000000" cont="0" />
        <request index="3" response="01000001100100000000" foes="01110001101111000000" cont="1" />
        <request index="4" response="01000001100000000000" foes="01000001100000000000" cont="1" />
        <request index="5" response="00000001100000000000" foes="00000001100000000000" cont="0" />
        <request index="6" response="00000011100000001111" foes="11000011100000001111" cont="0" />
        <request index="7" response="00000011100000001111" foes="11000011100000001111" cont="0" />
        <request index="8" response="00110011100000001110" foes="00110111100000001110" cont="1" />
        <request index="9" response="00110000000000001000" foes="00110000000000001000" cont="1" />
        <request index="10" response="00000000000000000000" foes="00110000000000000000" cont="0" />
        <request index="11" response="01000000000100000000" foes="01110000000111111000" cont="0" />
        <request index="12" response="01000000000100000000" foes="01110000000111111000" cont="0" />
        <request index="13" response="01000000000100000110" foes="11110000000111000110" cont="1" />
        <request index="14" response="00000000000100000110" foes="00000000000100000110" cont="1" />
        <request index="15" response="00000000000000000110" foes="00000000000000000110" cont="0" />
        <request index="16" response="00000011110000001110" foes="00000011111100001110" cont="0" />
        <request index="17" response="00000011110000001110" foes="00000011111100001110" cont="0" />
        <request index="18" response="00000011100011001110" foes="00000011100011011110" cont="1" />
        <request index="19" response="00000010000011000000" foes="00000010000011000000" cont="1" />
    </junction>
    <junction id="AA" type="traffic_light" x="334.04" y="578.93" z="-0.59" incLanes="A2AA_0 A2AA_1" intLanes=":AA_0_0" shape="334.04,578.93,-0.59 334.04,585.33,-0.59 334.04,578.93,-0.59">
        <request index="0" response="0" foes="0" cont="0" />
    </junction>
    <junction id="AB" type="traffic_light" x="510.42" y="755.30" z="-0.59" incLanes="A2AB_0 A2AB_1" intLanes=":AB_0_0" shape="510.42,755.30,-0.59 516.82,755.30,-0.59 510.42,755.30,-0.59">
        <request index="0" response="0" foes="0" cont="0" />
    </junction>
    <junction id="AC" type="traffic_light" x="686.79" y="578.93" z="-0.59" incLanes="A2AC_0 A2AC_1" intLanes=":AC_0_0" shape="686.79,578.93,-0.59 686.79,572.53,-0.59 686.79,578.93,-0.59">
        <request index="0" response="0" foes="0" cont="0" />
    </junction>
    <junction id="B" type="traffic_light" x="698.42" y="294.01" z="1.39" incLanes="BA2B_0 BA2B_1 BB2B_0 BB2B_1 BC2B_0 BC2B_1 TL2B_0 TL2B_1" intLanes=":B_0_0 :B_1_0 :B_1_1 :B_20_0 :B_21_0 :B_5_0 :B_6_0 :B_6_1 :B_22_0 :B_23_0 :B_10_0 :B_11_0 :B_11_1 :B_24_0 :B_25_0 :B_15_0 :B_16_0 :B_16_1 :B_26_0 :B_27_0" shape="698.08,306.22,1.39 709.16,299.82,1.39 708.43,297.67,1.39 708.53,296.72,1.39 708.92,295.85,1.39 709.62,295.06,1.39 710.62,294.35,1.39 704.22,283.27,1.39 702.08,283.99,1.39 701.13,283.90,1.39 700.26,283.51,1.39 699.47,282.81,1.39 698.76,281.80,1.39 687.68,288.20,1.39 688.40,290.35,1.39 688.31,291.30,1.39 687.91,292.17,1.39 687.21,292.96,1.39 686.21,293.67,1.39 692.61,304.75,1.39 694.76,304.03,1.39 695.71,304.12,1.39 696.58,304.51,1.39 697.37,305.21,1.39">
        <request index="0" response="00000000000011000000" foes="00000000000011000000" cont="0" />
        <request index="1" response="01111000000111000000" foes="01111110000111000000" cont="0" />
        <request index="2" response="01111000000111000000" foes="01111110000111000000" cont="0" />
        <request index="3" response="01110001100111000000" foes="01110001101111000000" cont="1" />
        <request index="4" response="01000001100000000000" foes="01000001100000000000" cont="1" />
        <request index="5" response="00000000000000000000" foes="00000001100000000000" cont="0" />
        <request index="6" response="00000010000000001000" foes="11000011100000001111" cont="0" />
        <request index="7" response="00000010000000001000" foes="11000011100000001111" cont="0" />
        <request index="8" response="00110010000000001000" foes="00110111100000001110" cont="1" />
        <request index="9" response="00110000000000001000" foes="00110000000000001000" cont="1" />
        <request index="10" response="00110000000000000000" foes="00110000000000000000" cont="0" />
        <request index="11" response="01110000000111100000" foes="01110000000111111000" cont="0" />
        <request index="12" response="01110000000111100000" foes="01110000000111111000" cont="0" />
        <request index="13" response="01110000000111000110" foes="11110000000111000110" cont="1" />
        <request index="14" response="00000000000100000110" foes="00000000000100000110" cont="1" />
        <request index="15" response="00000000000000000000" foes="00000000000000000110" cont="0" />
        <request index="16" response="00000010000000001000" foes="00000011111100001110" cont="0" />
        <request index="17" response="00000010000000001000" foes="00000011111100001110" cont="0" />
        <request index="18" response="00000010000011001000" foes="00000011100011011110" cont="1" />
        <request index="19" response="00000010000011000000" foes="00000010000011000000" cont="1" />
    </junction>
    <junction id="BA" type="traffic_light" x="806.96" y="482.01" z="1.39" incLanes="B2BA_0 B2BA_1" intLanes=":BA_0_0" shape="806.96,482.01,1.39 812.50,478.81,1.39 806.96,482.01,1.39">
        <request index="0" response="0" foes="0" cont="0" />
    </junction>
    <junction id="BB" type="traffic_light" x="886.42" y="185.47" z="1.39" incLanes="B2BB_0 B2BB_1" intLanes=":BB_0_0" shape="886.42,185.47,1.39 883.22,179.92,1.39 886.42,185.47,1.39">
        <request index="0" response="0" foes="0" cont="0" />
    </junction>
    <junction id="BC" type="traffic_light" x="589.88" y="106.01" z="1.39" incLanes="B2BC_0 B2BC_1" intLanes=":BC_0_0" shape="589.88,106.01,1.39 584.33,109.21,1.39 589.88,106.01,1.39">
        <request index="0" response="0" foes="0" cont="0" />
    </junction>
    <junction id="C" type="traffic_light" x="255.21" y="255.21" z="6.56" incLanes="CA2C_0 CB2C_0 CC2C_0" intLanes=":C_0_0 :C_1_0 :C_2_0" shape="261.44,258.81,6.56 263.04,256.04,6.56 261.34,254.54,6.56 260.95,253.67,6.56 260.85,252.72,6.56 261.06,251.69,6.56 261.58,250.57,6.56 258.81,248.97,6.56 257.00,250.50,6.56 255.75,250.67,6.56 254.26,250.45,6.56 252.53,249.84,6.56 250.57,248.84,6.56 248.97,251.61,6.56 250.67,253.10,6.56 251.07,253.97,6.56 251.16,254.93,6.56 250.95,255.96,6.56 250.44,257.07,6.56 253.21,258.67,6.56 255.01,257.15,6.56 256.27,256.97,6.56 257.76,257.19,6.56 259.48,257.80,6.56">
        <request index="0" response="000" foes="110" cont="0" />
        <request index="1" response="101" foes="101" cont="0" />
        <request index="2" response="001" foes="011" cont="0" />
    </junction>
    <junction id="CA" type="dead_end" x="402.55" y="0.00" z="6.56" incLanes="" intLanes="" shape="402.55,-0.00,6.56 405.32,1.60,6.56" />
    <junction id="CB" type="dead_end" x="0.00" y="107.86" z="6.56" incLanes="" intLanes="" shape="-0.00,107.86,6.56 1.60,105.09,6.56" />
    <junction id="CC" type="dead_end" x="107.86" y="510.42" z="6.56" incLanes="" intLanes="" shape="107.86,510.42,6.56 105.09,508.82,6.56" />