<net xmlns:xsi="http://www.w3.org/2001/XMLSchema-instance" version="1.9" junctionCornerDetail="5" limitTurnSpeed="5.50" xsi:noNamespaceSchemaLocation="http://sumo.dlr.de/xsd/net_file.xsd">

    <location netOffset="403.88,362.68" convBoundary="0.00,0.00,863.74,999.01" origBoundary="-403.88,-362.68,459.85,636.33" projParameter="!" />

    <edge id=":A_0" function="internal">
        <lane id=":A_0_0" index="0" speed="8.10" length="14.57" shape="395.88,694.44,-21.03 395.53,689.19,-21.03 394.48,685.44,-21.03 392.73,683.19,-21.03 390.28,682.44,-21.03" />
    </edge>
    <edge id=":A_1" function="internal">
        <lane id=":A_1_0" index="0" speed="11.18" length="27.20" shape="395.88,694.44,-21.03 395.88,667.24,-21.03" />
        <lane id=":A_1_1" index="1" speed="11.18" length="27.20" shape="399.08,694.44,-21.03 399.08,667.24,-21.03" />
        <lane id=":A_1_2" index="2" speed="11.18" length="27.20" shape="402.28,694.44,-21.03 402.28,667.24,-21.03" />
    </edge>
    <edge id=":A_4" function="internal">
        <lane id=":A_4_0" index="0" speed="9.32" length="7.05" shape="402.28,694.44,-21.03 402.83,687.79,-21.03 402.96,687.43,-21.03" />
    </edge>
    <edge id=":A_5" function="internal">
        <lane id=":A_5_0" index="0" speed="3.65" length="1.44" shape="402.28,694.44,-21.03 403.08,693.24,-21.03" />
    </edge>
    <edge id=":A_18" function="internal">
        <lane id=":A_18_0" index="0" speed="9.32" length="12.57" shape="402.96,687.43,-21.03 404.48,683.04,-21.03 407.23,680.19,-21.03 411.08,679.24,-21.03" />
    </edge>
    <edge id=":A_19" function="internal">
        <lane id=":A_19_0" index="0" speed="3.65" length="3.23" shape="403.08,693.24,-21.03 403.88,692.84,-21.03 404.68,693.24,-21.03 405.48,694.44,-21.03" />
    </edge>
    <edge id=":A_6" function="internal">
        <lane id=":A_6_0" index="0" speed="6.51" length="9.03" shape="411.08,688.84,-21.03 408.63,689.19,-21.03 406.88,690.24,-21.03 405.83,691.99,-21.03 405.48,694.44,-21.03" />
    </edge>
    <edge id=":A_7" function="internal">
        <lane id=":A_7_0" index="0" speed="11.18" length="21.09" shape="411.08,685.64,-21.03 404.10,685.14,-21.03 398.61,684.04,-21.03 394.16,682.94,-21.03 390.28,682.44,-21.03" />
    </edge>
    <edge id=":A_8" function="internal">
        <lane id=":A_8_0" index="0" speed="9.32" length="4.12" shape="411.08,682.44,-21.03 407.23,681.49,-21.03 407.12,681.38,-21.03" />
    </edge>
    <edge id=":A_9" function="internal">
        <lane id=":A_9_0" index="0" speed="3.65" length="1.44" shape="411.08,682.44,-21.03 409.88,681.64,-21.03" />
    </edge>
    <edge id=":A_20" function="internal">
        <lane id=":A_20_0" index="0" speed="9.32" length="15.51" shape="407.12,681.38,-21.03 404.48,678.64,-21.03 402.83,673.89,-21.03 402.28,667.24,-21.03" />
    </edge>
    <edge id=":A_21" function="internal">
        <lane id=":A_21_0" index="0" speed="3.65" length="3.23" shape="409.88,681.64,-21.03 409.48,680.84,-21.03 409.88,680.04,-21.03 411.08,679.24,-21.03" />
    </edge>
    <edge id=":A_10" function="internal">
        <lane id=":A_10_0" index="0" speed="8.10" length="14.57" shape="405.48,667.24,-21.03 405.83,672.49,-21.03 406.88,676.24,-21.03 408.63,678.49,-21.03 411.08,679.24,-21.03" />
    </edge>
    <edge id=":A_11" function="internal">
        <lane id=":A_11_0" index="0" speed="11.18" length="27.20" shape="405.48,667.24,-21.03 405.48,694.44,-21.03" />
    </edge>
    <edge id=":A_12" function="internal">
        <lane id=":A_12_0" index="0" speed="10.36" length="5.01" shape="405.48,667.24,-21.03 404.77,672.21,-21.03" />
    </edge>
    <edge id=":A_13" function="internal">
        <lane id=":A_13_0" index="0" speed="3.65" length="1.44" shape="405.48,667.24,-21.03 404.68,668.44,-21.03" />
    </edge>
    <edge id=":A_22" function="internal">
        <lane id=":A_22_0" index="0" speed="10.36" length="19.50" shape="404.77,672.21,-21.03 404.53,673.89,-21.03 401.68,678.64,-21.03 396.93,681.49,-21.03 390.28,682.44,-21.03" />
    </edge>
    <edge id=":A_23" function="internal">
        <lane id=":A_23_0" index="0" speed="3.65" length="3.23" shape="404.68,668.44,-21.03 403.88,668.84,-21.03 403.08,668.44,-21.03 402.28,667.24,-21.03" />
    </edge>
    <edge id=":A_14" function="internal">
        <lane id=":A_14_0" index="0" speed="6.51" length="9.03" shape="390.28,672.84,-21.03 392.73,672.49,-21.03 394.48,671.44,-21.03 395.53,669.69,-21.03 395.88,667.24,-21.03" />
    </edge>
    <edge id=":A_15" function="internal">
        <lane id=":A_15_0" index="0" speed="11.18" length="21.09" shape="390.28,676.04,-21.03 397.27,676.54,-21.03 402.75,677.64,-21.03 407.20,678.74,-21.03 411.08,679.24,-21.03" />
    </edge>
    <edge id=":A_16" function="internal">
        <lane id=":A_16_0" index="0" speed="10.36" length="9.32" shape="390.28,679.24,-21.03 396.93,680.19,-21.03 399.17,681.53,-21.03" />
    </edge>
    <edge id=":A_17" function="internal">
        <lane id=":A_17_0" index="0" speed="3.65" length="1.44" shape="390.28,679.24,-21.03 391.48,680.04,-21.03" />
    </edge>
    <edge id=":A_24" function="internal">
        <lane id=":A_24_0" index="0" speed="10.36" length="15.19" shape="399.17,681.53,-21.03 401.68,683.04,-21.03 404.53,687.79,-21.03 405.48,694.44,-21.03" />
    </edge>
    <edge id=":A_25" function="internal">
        <lane id=":A_25_0" index="0" speed="3.65" length="3.23" shape="391.48,680.04,-21.03 391.88,680.84,-21.03 391.48,681.64,-21.03 390.28,682.44,-21.03" />
    </edge>
    <edge id=":AA_0" function="internal">
        <lane id=":AA_0_0" index="0" speed="3.65" length="4.67" shape="85.71,682.44,-21.03 84.51,681.64,-21.03 84.11,680.84,-21.03 84.51,680.04,-21.03 85.71,679.24,-21.03" />
    </edge>
    <edge id=":AB_0" function="internal">
        <lane id=":AB_0_0" index="0" speed="3.65" length="4.67" shape="405.48,999.01,-21.03 404.68,1000.21,-21.03 403.88,1000.61,-21.03 403.08,1000.21,-21.03 402.28,999.01,-21.03" />
    </edge>
    <edge id=":AC_0" function="internal">
        <lane id=":AC_0_0" index="0" speed="3.65" length="4.67" shape="722.05,679.24,-21.03 723.25,680.04,-21.03 723.65,680.84,-21.03 723.25,681.64,-21.03 722.05,682.44,-21.03" />
    </edge>
    <edge id=":B_0" function="internal">
        <lane id=":B_0_0" index="0" speed="6.51" length="9.03" shape="634.85,241.33,-4.53 633.32,239.39,-4.48 631.54,238.40,-4.44 629.50,238.36,-4.40 627.20,239.28,-4.35" />
    </edge>
    <edge id=":B_1" function="internal">
        <lane id=":B_1_0" index="0" speed="13.41" length="20.80" shape="634.85,241.33,-4.53 624.45,223.32,-4.53" />
        <lane id=":B_1_1" index="1" speed="13.41" length="20.80" shape="637.62,239.73,-4.53 627.22,221.72,-4.53" />
    </edge>
    <edge id=":B_3" function="internal">
        <lane id=":B_3_0" index="0" speed="9.26" length="5.01" shape="637.62,239.73,-4.53 635.76,235.08,-4.53" />
    </edge>
    <edge id=":B_4" function="internal">
        <lane id=":B_4_0" index="0" speed="3.65" length="1.44" shape="637.62,239.73,-4.53 637.72,238.29,-4.53" />
    </edge>
    <edge id=":B_20" function="internal">
        <lane id=":B_20_0" index="0" speed="9.26" length="14.34" shape="635.76,235.08,-4.53 635.65,234.81,-4.53 635.72,230.44,-4.53 637.84,226.62,-4.53 642.02,223.34,-4.53" />
    </edge>
    <edge id=":B_21" function="internal">
        <lane id=":B_21_0" index="0" speed="3.65" length="3.23" shape="637.72,238.29,-4.53 638.21,237.55,-4.53 639.10,237.49,-4.53 640.39,238.13,-4.53" />
    </edge>
    <edge id=":B_5" function="internal">
        <lane id=":B_5_0" index="0" speed="6.51" length="9.03" shape="645.22,228.88,-4.53 643.27,230.41,-4.53 642.28,232.20,-4.53 642.24,234.24,-4.53 643.17,236.53,-4.53" />
    </edge>
    <edge id=":B_6" function="internal">
        <lane id=":B_6_0" index="0" speed="13.41" length="20.80" shape="645.22,228.88,-4.53 627.20,239.28,-4.35" />
        <lane id=":B_6_1" index="1" speed="13.41" length="20.80" shape="643.62,226.11,-4.53 625.60,236.51,-4.35" />
    </edge>
    <edge id=":B_8" function="internal">
        <lane id=":B_8_0" index="0" speed="9.26" length="5.01" shape="643.62,226.11,-4.53 638.96,227.98,-4.53" />
    </edge>
    <edge id=":B_9" function="internal">
        <lane id=":B_9_0" index="0" speed="3.65" length="1.44" shape="643.62,226.11,-4.53 642.18,226.02,-4.53" />
    </edge>
    <edge id=":B_22" function="internal">
        <lane id=":B_22_0" index="0" speed="9.26" length="14.34" shape="638.96,227.98,-4.53 638.69,228.09,-4.53 634.32,228.01,-4.53 630.50,225.89,-4.53 627.22,221.72,-4.53" />
    </edge>
    <edge id=":B_23" function="internal">
        <lane id=":B_23_0" index="0" speed="3.65" length="3.23" shape="642.18,226.02,-4.53 641.43,225.53,-4.53 641.38,224.63,-4.53 642.02,223.34,-4.53" />
    </edge>
    <edge id=":B_10" function="internal">
        <lane id=":B_10_0" index="0" speed="6.51" length="9.03" shape="632.77,218.52,-4.53 634.29,220.47,-4.53 636.08,221.46,-4.53 638.12,221.49,-4.53 640.42,220.57,-4.53" />
    </edge>
    <edge id=":B_11" function="internal">
        <lane id=":B_11_0" index="0" speed="13.41" length="20.80" shape="632.77,218.52,-4.53 643.17,236.53,-4.53" />
        <lane id=":B_11_1" index="1" speed="13.41" length="20.80" shape="629.99,220.12,-4.53 640.39,238.13,-4.53" />
    </edge>
    <edge id=":B_13" function="internal">
        <lane id=":B_13_0" index="0" speed="9.26" length="5.01" shape="629.99,220.12,-4.53 631.86,224.77,-4.49" />
    </edge>
    <edge id=":B_14" function="internal">
        <lane id=":B_14_0" index="0" speed="3.65" length="1.44" shape="629.99,220.12,-4.53 629.90,221.56,-4.53" />
    </edge>
    <edge id=":B_24" function="internal">
        <lane id=":B_24_0" index="0" speed="9.26" length="14.34" shape="631.86,224.77,-4.49 631.97,225.04,-4.48 631.90,229.41,-4.44 629.77,233.24,-4.40 625.60,236.51,-4.35" />
    </edge>
    <edge id=":B_25" function="internal">
        <lane id=":B_25_0" index="0" speed="3.65" length="3.23" shape="629.90,221.56,-4.53 629.41,222.31,-4.53 628.52,222.36,-4.53 627.22,221.72,-4.53" />
    </edge>
    <edge id=":B_15" function="internal">
        <lane id=":B_15_0" index="0" speed="6.51" length="9.03" shape="622.40,230.97,-4.35 624.35,229.44,-4.40 625.34,227.66,-4.44 625.37,225.62,-4.48 624.45,223.32,-4.53" />
    </edge>
    <edge id=":B_16" function="internal">
        <lane id=":B_16_0" index="0" speed="13.41" length="20.80" shape="622.40,230.97,-4.35 640.42,220.57,-4.53" />
        <lane id=":B_16_1" index="1" speed="13.41" length="20.80" shape="624.00,233.74,-4.35 642.02,223.34,-4.53" />
    </edge>
    <edge id=":B_18" function="internal">
        <lane id=":B_18_0" index="0" speed="9.26" length="5.01" shape="624.00,233.74,-4.35 628.65,231.87,-4.40" />
    </edge>
    <edge id=":B_19" function="internal">
        <lane id=":B_19_0" index="0" speed="3.65" length="1.44" shape="624.00,233.74,-4.35 625.44,233.83,-4.35" />
    </edge>
    <edge id=":B_26" function="internal">
        <lane id=":B_26_0" index="0" speed="9.26" length="14.34" shape="628.65,231.87,-4.40 628.92,231.77,-4.40 633.30,231.84,-4.44 637.12,233.96,-4.48 640.39,238.13,-4.53" />
    </edge>
    <edge id=":B_27" function="internal">
        <lane id=":B_27_0" index="0" speed="3.65" length="3.23" shape="625.44,233.83,-4.35 626.19,234.33,-4.35 626.24,235.22,-4.35 625.60,236.51,-4.35" />
    </edge>
    <edge id=":BA_0" function="internal">
        <lane id=":BA_0_0" index="0" speed="3.65" length="4.67" shape="767.94,459.05,-4.53 767.85,460.49,-4.53 767.36,461.24,-4.53 766.46,461.29,-4.53 765.17,460.65,-4.53" />
    </edge>
    <edge id=":BB_0" function="internal">
        <lane id=":BB_0_0" index="0" speed="3.65" length="4.67" shape="862.94,95.79,-4.53 864.37,95.89,-4.53 865.12,96.38,-4.53 865.17,97.27,-4.53 864.54,98.56,-4.53" />
    </edge>
    <edge id=":BC_0" function="internal">
        <lane id=":BC_0_0" index="0" speed="3.65" length="4.67" shape="499.67,0.80,-4.53 499.77,-0.64,-4.53 500.26,-1.39,-4.53 501.15,-1.44,-4.53 502.45,-0.80,-4.53" />
    </edge>
    <edge id=":C_0" function="internal">
        <lane id=":C_0_0" index="0" speed="6.51" length="9.03" shape="208.55,255.44,-3.80 206.25,254.52,-3.85 204.21,254.55,-3.89 202.43,255.55,-3.93 200.90,257.49,-3.98" />
    </edge>
    <edge id=":C_1" function="internal">
        <lane id=":C_1_0" index="0" speed="13.41" length="20.80" shape="208.55,255.44,-3.80 190.53,245.04,-3.98" />
        <lane id=":C_1_1" index="1" speed="13.41" length="20.80" shape="210.15,252.67,-3.80 192.13,242.27,-3.98" />
    </edge>
    <edge id=":C_3" function="internal">
        <lane id=":C_3_0" index="0" speed="9.26" length="5.01" shape="210.15,252.67,-3.80 206.20,249.58,-3.85" />
    </edge>
    <edge id=":C_4" function="internal">
        <lane id=":C_4_0" index="0" speed="3.65" length="1.44" shape="210.15,252.67,-3.80 209.51,251.38,-3.80" />
    </edge>
    <edge id=":C_20" function="internal">
        <lane id=":C_20_0" index="0" speed="9.26" length="14.34" shape="206.20,249.58,-3.85 205.98,249.40,-3.85 203.85,245.57,-3.89 203.78,241.20,-3.93 205.76,236.28,-3.98" />
    </edge>
    <edge id=":C_21" function="internal">
        <lane id=":C_21_0" index="0" speed="3.65" length="3.23" shape="209.51,251.38,-3.80 209.56,250.49,-3.80 210.31,249.99,-3.80 211.75,249.90,-3.80" />
    </edge>
    <edge id=":C_5" function="internal">
        <lane id=":C_5_0" index="0" speed="6.51" length="9.03" shape="211.30,239.48,-3.98 210.38,241.78,-3.93 210.41,243.82,-3.89 211.40,245.60,-3.85 213.35,247.13,-3.80" />
    </edge>
    <edge id=":C_6" function="internal">
        <lane id=":C_6_0" index="0" speed="13.41" length="20.80" shape="211.30,239.48,-3.98 200.90,257.49,-3.98" />
        <lane id=":C_6_1" index="1" speed="13.41" length="20.80" shape="208.53,237.88,-3.98 198.13,255.89,-3.98" />
    </edge>
    <edge id=":C_8" function="internal">
        <lane id=":C_8_0" index="0" speed="9.26" length="5.01" shape="208.53,237.88,-3.98 205.43,241.82,-3.98" />
    </edge>
    <edge id=":C_9" function="internal">
        <lane id=":C_9_0" index="0" speed="3.65" length="1.44" shape="208.53,237.88,-3.98 207.23,238.52,-3.98" />
    </edge>
    <edge id=":C_22" function="internal">
        <lane id=":C_22_0" index="0" speed="9.26" length="14.34" shape="205.43,241.82,-3.98 205.25,242.05,-3.98 201.43,244.17,-3.98 197.06,244.25,-3.98 192.13,242.27,-3.98" />
    </edge>
    <edge id=":C_23" function="internal">
        <lane id=":C_23_0" index="0" speed="3.65" length="3.23" shape="207.23,238.52,-3.98 206.34,238.46,-3.98 205.85,237.72,-3.98 205.76,236.28,-3.98" />
    </edge>
    <edge id=":C_10" function="internal">
        <lane id=":C_10_0" index="0" speed="6.51" length="9.03" shape="195.33,236.73,-3.98 197.63,237.65,-3.98 199.67,237.62,-3.98 201.46,236.63,-3.98 202.98,234.68,-3.98" />
    </edge>
    <edge id=":C_11" function="internal">
        <lane id=":C_11_0" index="0" speed="13.41" length="20.80" shape="195.33,236.73,-3.98 213.35,247.13,-3.80" />
        <lane id=":C_11_1" index="1" speed="13.41" length="20.80" shape="193.73,239.50,-3.98 211.75,249.90,-3.80" />
    </edge>
    <edge id=":C_13" function="internal">
        <lane id=":C_13_0" index="0" speed="9.26" length="5.01" shape="193.73,239.50,-3.98 197.68,242.60,-3.98" />
    </edge>
    <edge id=":C_14" function="internal">
        <lane id=":C_14_0" index="0" speed="3.65" length="1.44" shape="193.73,239.50,-3.98 194.37,240.79,-3.98" />
    </edge>
    <edge id=":C_24" function="internal">
        <lane id=":C_24_0" index="0" speed="9.26" length="14.34" shape="197.68,242.60,-3.98 197.91,242.77,-3.98 200.03,246.60,-3.98 200.10,250.97,-3.98 198.13,255.89,-3.98" />
    </edge>
    <edge id=":C_25" function="internal">
        <lane id=":C_25_0" index="0" speed="3.65" length="3.23" shape="194.37,240.79,-3.98 194.32,241.69,-3.98 193.57,242.18,-3.98 192.13,242.27,-3.98" />
    </edge>
    <edge id=":C_15" function="internal">
        <lane id=":C_15_0" index="0" speed="6.51" length="9.03" shape="192.58,252.69,-3.98 193.51,250.40,-3.98 193.47,248.35,-3.98 192.48,246.57,-3.98 190.53,245.04,-3.98" />
    </edge>
    <edge id=":C_16" function="internal">
        <lane id=":C_16_0" index="0" speed="13.41" length="20.80" shape="192.58,252.69,-3.98 202.98,234.68,-3.98" />
        <lane id=":C_16_1" index="1" speed="13.41" length="20.80" shape="195.36,254.29,-3.98 205.76,236.28,-3.98" />
    </edge>
    <edge id=":C_18" function="internal">
        <lane id=":C_18_0" index="0" speed="9.26" length="5.01" shape="195.36,254.29,-3.98 198.45,250.35,-3.93" />
    </edge>
    <edge id=":C_19" function="internal">
        <lane id=":C_19_0" index="0" speed="3.65" length="1.44" shape="195.36,254.29,-3.98 196.65,253.65,-3.98" />
    </edge>
    <edge id=":C_26" function="internal">
        <lane id=":C_26_0" index="0" speed="9.26" length="14.34" shape="198.45,250.35,-3.93 198.63,250.12,-3.93 202.45,248.00,-3.89 206.83,247.92,-3.85 211.75,249.90,-3.80" />
    </edge>
    <edge id=":C_27" function="internal">
        <lane id=":C_27_0" index="0" speed="3.65" length="3.23" shape="196.65,253.65,-3.98 197.54,253.71,-3.98 198.03,254.45,-3.98 198.13,255.89,-3.98" />
    </edge>
    <edge id=":CA_0" function="internal">
        <lane id=":CA_0_0" index="0" speed="3.65" length="4.67" shape="317.15,43.34,-3.98 318.44,42.71,-3.98 319.33,42.76,-3.98 319.82,43.51,-3.98 319.92,44.94,-3.98" />
    </edge>
    <edge id=":CB_0" function="internal">
        <lane id=":CB_0_0" index="0" speed="3.65" length="4.67" shape="-0.80,130.88,-3.98 -1.44,129.59,-3.98 -1.39,128.69,-3.98 -0.64,128.20,-3.98 0.80,128.11,-3.98" />
    </edge>
    <edge id=":CC_0" function="internal">
        <lane id=":CC_0_0" index="0" speed="3.65" length="4.67" shape="86.74,448.83,-3.98 85.44,449.47,-3.98 84.55,449.41,-3.98 84.06,448.67,-3.98 83.96,447.23,-3.98" />
    </edge>
    <edge id=":TL_0" function="internal">
        <lane id=":TL_0_0" index="0" speed="8.35" length="9.34" shape="395.88,370.53 395.71,367.40,-0.06 395.18,364.93,-0.10 394.31,363.12,-0.14 393.08,361.98,-0.17" />
    </edge>
    <edge id=":TL_1" function="internal">
        <lane id=":TL_1_0" index="0" speed="11.31" length="17.65" shape="399.08,370.53 399.56,365.61,-0.03 400.98,361.46,-0.05 403.36,358.10,-0.08 406.68,355.52,-0.10" />
        <lane id=":TL_1_1" index="1" speed="10.22" length="14.30" shape="402.28,370.53 402.66,366.47,-0.03 403.78,363.08,-0.05 405.66,360.35,-0.08 408.28,358.29,-0.10" />
    </edge>
    <edge id=":TL_3" function="internal">
        <lane id=":TL_3_0" index="0" speed="8.35" length="9.34" shape="411.48,363.83,-0.10 408.86,365.55,-0.07 406.98,367.24,-0.04 405.86,368.90,-0.02 405.48,370.53" />
    </edge>
    <edge id=":TL_4" function="internal">
        <lane id=":TL_4_0" index="0" speed="11.83" length="6.46" shape="411.48,363.83,-0.10 407.48,365.36,-0.12 405.30,365.46,-0.12" />
        <lane id=":TL_4_1" index="1" speed="10.80" length="2.32" shape="409.88,361.06,-0.10 407.71,361.86,-0.11" />
    </edge>
    <edge id=":TL_9" function="internal">
        <lane id=":TL_9_0" index="0" speed="11.83" length="12.90" shape="405.30,365.46,-0.12 403.08,365.56,-0.13 398.28,364.44,-0.15 393.08,361.98,-0.17" />
    </edge>
    <edge id=":TL_10" function="internal">
        <lane id=":TL_10_0" index="0" speed="10.80" length="13.70" shape="407.71,361.86,-0.11 406.68,362.24,-0.12 403.08,362.33,-0.13 399.08,361.32,-0.15 394.68,359.21,-0.17" />
    </edge>
    <edge id=":TL_6" function="internal">
        <lane id=":TL_6_0" index="0" speed="8.35" length="9.34" shape="397.88,353.67,-0.17 400.68,355.08,-0.14 403.08,355.86,-0.13 405.08,356.01,-0.11 406.68,355.52,-0.10" />
        <lane id=":TL_6_1" index="1" speed="9.65" length="12.67" shape="396.28,356.44,-0.17 399.88,358.20,-0.15 403.08,359.10,-0.13 405.88,359.12,-0.12 408.28,358.29,-0.10" />
    </edge>
    <edge id=":TL_8" function="internal">
        <lane id=":TL_8_0" index="0" speed="11.31" length="17.65" shape="396.28,356.44,-0.17 400.31,359.31,-0.12 403.18,362.62,-0.08 404.91,366.36,-0.04 405.48,370.53" />
    </edge>

    <edge id="A2AA" from="A" to="AA" priority="-1">
        <lane id="A2AA_0" index="0" speed="11.18" length="304.57" shape="390.28,682.44,-21.03 85.71,682.44,-21.03" />
    </edge>
    <edge id="A2AB" from="A" to="AB" priority="-1">
        <lane id="A2AB_0" index="0" speed="11.18" length="304.57" shape="405.48,694.44,-21.03 405.48,999.01,-21.03" />
    </edge>
    <edge id="A2AC" from="A" to="AC" priority="-1">
        <lane id="A2AC_0" index="0" speed="11.18" length="310.97" shape="411.08,679.24,-21.03 722.05,679.24,-21.03" />
    </edge>
    <edge id="A2TL" from="A" to="TL" priority="-1">
        <lane id="A2TL_0" index="0" speed="11.18" length="297.46" shape="395.88,667.24,-21.03 395.88,370.53" />
        <lane id="A2TL_1" index="1" speed="11.18" length="297.46" shape="399.08,667.24,-21.03 399.08,370.53" />
        <lane id="A2TL_2" index="2" speed="11.18" length="297.46" shape="402.28,667.24,-21.03 402.28,370.53" />
    </edge>
    <edge id="AA2A" from="AA" to="A" priority="-1">
        <lane id="AA2A_0" index="0" speed="11.18" length="304.57" shape="85.71,672.84,-21.03 390.28,672.84,-21.03" />
        <lane id="AA2A_1" index="1" speed="11.18" length="304.57" shape="85.71,676.04,-21.03 390.28,676.04,-21.03" />
        <lane id="AA2A_2" index="2" speed="11.18" length="304.57" shape="85.71,679.24,-21.03 390.28,679.24,-21.03" />
    </edge>
    <edge id="AB2A" from="AB" to="A" priority="-1">
        <lane id="AB2A_0" index="0" speed="11.18" length="304.57" shape="395.88,999.01,-21.03 395.88,694.44,-21.03" />
        <lane id="AB2A_1" index="1" speed="11.18" length="304.57" shape="399.08,999.01,-21.03 399.08,694.44,-21.03" />
        <lane id="AB2A_2" index="2" speed="11.18" length="304.57" shape="402.28,999.01,-21.03 402.28,694.44,-21.03" />
    </edge>
    <edge id="AC2A" from="AC" to="A" priority="-1">
        <lane id="AC2A_0" index="0" speed="11.18" length="310.97" shape="722.05,688.84,-21.03 411.08,688.84,-21.03" />
        <lane id="AC2A_1" index="1" speed="11.18" length="310.97" shape="722.05,685.64,-21.03 411.08,685.64,-21.03" />
        <lane id="AC2A_2" index="2" speed="11.18" length="310.97" shape="722.05,682.44,-21.03 411.08,682.44,-21.03" />
    </edge>
    <edge id="B2BA" from="B" to="BA" priority="-1">
        <lane id="B2BA_0" index="0" speed="13.41" length="255.10" shape="643.17,236.53,-4.53 770.71,457.45,-4.53" />
        <lane id="B2BA_1" index="1" speed="13.41" length="255.10" shape="640.39,238.13,-4.53 767.94,459.05,-4.53" />
    </edge>
    <edge id="B2BB" from="B" to="BB" priority="-1">
        <lane id="B2BB_0" index="0" speed="13.41" length="255.10" shape="640.42,220.57,-4.53 861.34,93.02,-4.53" />
        <lane id="B2BB_1" index="1" speed="13.41" length="255.10" shape="642.02,223.34,-4.53 862.94,95.79,-4.53" />
    </edge>
    <edge id="B2BC" from="B" to="BC" priority="-1">
        <lane id="B2BC_0" index="0" speed="13.41" length="255.10" shape="624.45,223.32,-4.53 496.90,2.40,-4.53" />
        <lane id="B2BC_1" index="1" speed="13.41" length="255.10" shape="627.22,221.72,-4.53 499.67,0.80,-4.53" />
    </edge>
    <edge id="B2TL" from="B" to="TL" priority="-1">
        <lane id="B2TL_0" index="0" speed="13.41" length="249.13" shape="627.20,239.28,-4.35 411.48,363.83,-0.10" />
        <lane id="B2TL_1" index="1" speed="13.41" length="249.13" shape="625.60,236.51,-4.35 409.88,361.06,-0.10" />
    </edge>
    <edge id="BA2B" from="BA" to="B" priority="-1">
        <lane id="BA2B_0" index="0" speed="13.41" length="255.10" shape="762.40,462.25,-4.53 634.85,241.33,-4.53" />
        <lane id="BA2B_1" index="1" speed="13.41" length="255.10" shape="765.17,460.65,-4.53 637.62,239.73,-4.53" />
    </edge>
    <edge id="BB2B" from="BB" to="B" priority="-1">
        <lane id="BB2B_0" index="0" speed="13.41" length="255.10" shape="866.14,101.34,-4.53 645.22,228.88,-4.53" />
        <lane id="BB2B_1" index="1" speed="13.41" length="255.10" shape="864.54,98.56,-4.53 643.62,226.11,-4.53" />
    </edge>
    <edge id="BC2B" from="BC" to="B" priority="-1">
        <lane id="BC2B_0" index="0" speed="13.41" length="255.10" shape="505.22,-2.40,-4.53 632.77,218.52,-4.53" />
        <lane id="BC2B_1" index="1" speed="13.41" length="255.10" shape="502.45,-0.80,-4.53 629.99,220.12,-4.53" />
    </edge>
    <edge id="C2CA" from="C" to="CA" priority="-1">
        <lane id="C2CA_0" index="0" speed="13.41" length="222.78" shape="202.98,234.68,-3.98 314.37,41.74,-3.98" />
        <lane id="C2CA_1" index="1" speed="13.41" length="222.78" shape="205.76,236.28,-3.98 317.15,43.34,-3.98" />
    </edge>
    <edge id="C2CB" from="C" to="CB" priority="-1">
        <lane id="C2CB_0" index="0" speed="13.41" length="222.78" shape="190.53,245.04,-3.98 -2.40,133.65,-3.98" />
        <lane id="C2CB_1" index="1" speed="13.41" length="222.78" shape="192.13,242.27,-3.98 -0.80,130.88,-3.98" />
    </edge>
    <edge id="C2CC" from="C" to="CC" priority="-1">
        <lane id="C2CC_0" index="0" speed="13.41" length="222.78" shape="200.90,257.49,-3.98 89.51,450.43,-3.98" />
        <lane id="C2CC_1" index="1" speed="13.41" length="222.78" shape="198.13,255.89,-3.98 86.74,448.83,-3.98" />
    </edge>
    <edge id="C2TL" from="C" to="TL" priority="-1">
        <lane id="C2TL_0" index="0" speed="13.41" length="213.11" shape="213.35,247.13,-3.80 397.88,353.67,-0.17" />
        <lane id="C2TL_1" index="1" speed="13.41" length="213.11" shape="211.75,249.90,-3.80 396.28,356.44,-0.17" />
    </edge>
    <edge id="CA2C" from="CA" to="C" priority="-1">
        <lane id="CA2C_0" index="0" speed="13.41" length="222.78" shape="322.69,46.54,-3.98 211.30,239.48,-3.98" />
        <lane id="CA2C_1" index="1" speed="13.41" length="222.78" shape="319.92,44.94,-3.98 208.53,237.88,-3.98" />
    </edge>
    <edge id="CB2C" from="CB" to="C" priority="-1">
        <lane id="CB2C_0" index="0" speed="13.41" length="222.78" shape="2.40,125.34,-3.98 195.33,236.73,-3.98" />
        <lane id="CB2C_1" index="1" speed="13.41" length="222.78" shape="0.80,128.11,-3.98 193.73,239.50,-3.98" />
    </edge>
    <edge id="CC2C" from="CC" to="C" priority="-1">
        <lane id="CC2C_0" index="0" speed="13.41" length="222.78" shape="81.19,445.63,-3.98 192.58,252.69,-3.98" />
        <lane id="CC2C_1" index="1" speed="13.41" length="222.78" shape="83.96,447.23,-3.98 195.36,254.29,-3.98" />
    </edge>
    <edge id="TL2A" from="TL" to="A" priority="-1">
        <lane id="TL2A_0" index="0" speed="11.18" length="297.46" shape="405.48,370.53 405.48,667.24,-21.03" />
    </edge>
    <edge id="TL2B" from="TL" to="B" priority="-1">
        <lane id="TL2B_0" index="0" speed="13.41" length="249.13" shape="406.68,355.52,-0.10 622.40,230.97,-4.35" />
        <lane id="TL2B_1" index="1" speed="13.41" length="249.13" shape="408.28,358.29,-0.10 624.00,233.74,-4.35" />
    </edge>
    <edge id="TL2C" from="TL" to="C" priority="-1">
        <lane id="TL2C_0" index="0" speed="13.41" length="213.11" shape="393.08,361.98,-0.17 208.55,255.44,-3.80" />
        <lane id="TL2C_1" index="1" speed="13.41" length="213.11" shape="394.68,359.21,-0.17 210.15,252.67,-3.80" />
    </edge>

    <tlLogic id="A" type="static" programID="0" offset="0">
        <phase duration="38" state="rrrrrrGGrrrrrrGGrr" />
        <phase duration="3" state="rrrrrryyrrrrrryyrr" />
        <phase duration="6" state="rrrrrrrrGGrrrrrrGG" />
        <phase duration="3" state="rrrrrrrryyrrrrrryy" />
        <phase duration="37" state="GGGGggrrrrGGggrrrr" />
        <phase duration="3" state="yyyyyyrrrryyyyrrrr" />
    </tlLogic>
    <tlLogic id="AA" type="static" programID="0" offset="0">
        <phase duration="82" state="G" />
        <phase duration="3" state="y" />
        <phase duration="5" state="r" />
    </tlLogic>
    <tlLogic id="AB" type="static" programID="0" offset="0">
        <phase duration="82" state="G" />
        <phase duration="3" state="y" />
        <phase duration="5" state="r" />
    </tlLogic>
    <tlLogic id="AC" type="static" programID="0" offset="0">
        <phase duration="82" state="G" />
        <phase duration="3" state="y" />
        <phase duration="5" state="r" />
    </tlLogic>
    <tlLogic id="B" type="static" programID="0" offset="0">
        <phase duration="42" state="rrrrrGGGggrrrrrGGGgg" />
        <phase duration="3" state="rrrrryyyyyrrrrryyyyy" />
        <phase duration="42" state="GGGggrrrrrGGGggrrrrr" />
        <phase duration="3" state="yyyyyrrrrryyyyyrrrrr" />
    </tlLogic>
    <tlLogic id="BA" type="static" programID="0" offset="0">
        <phase duration="82" state="G" />
        <phase duration="3" state="y" />
        <phase duration="5" state="r" />
    </tlLogic>
    <tlLogic id="BB" type="static" programID="0" offset="0">
        <phase duration="82" state="G" />
        <phase duration="3" state="y" />
        <phase duration="5" state="r" />
    </tlLogic>
    <tlLogic id="BC" type="static" programID="0" offset="0">
        <phase duration="82" state="G" />
        <phase duration="3" state="y" />
        <phase duration="5" state="r" />
    </tlLogic>
    <tlLogic id="C" type="static" programID="0" offset="0">
        <phase duration="42" state="GGGggrrrrrGGGggrrrrr" />
        <phase duration="3" state="yyyyyrrrrryyyyyrrrrr" />
        <phase duration="42" state="rrrrrGGGggrrrrrGGGgg" />
        <phase duration="3" state="rrrrryyyyyrrrrryyyyy" />
    </tlLogic>
    <tlLogic id="CA" type="static" programID="0" offset="0">
        <phase duration="82" state="G" />
        <phase duration="3" state="y" />
        <phase duration="5" state="r" />
    </tlLogic>
    <tlLogic id="CB" type="static" programID="0" offset="0">
        <phase duration="82" state="G" />
        <phase duration="3" state="y" />
        <phase duration="5" state="r" />
    </tlLogic>
    <tlLogic id="CC" type="static" programID="0" offset="0">
        <phase duration="82" state="G" />
        <phase duration="3" state="y" />