<net xmlns:xsi="http://www.w3.org/2001/XMLSchema-instance" version="1.9" junctionCornerDetail="5" limitTurnSpeed="5.50" xsi:noNamespaceSchemaLocation="http://sumo.dlr.de/xsd/net_file.xsd">

    <location netOffset="489.08,632.62" convBoundary="0.00,0.00,1099.80,1610.79" origBoundary="-489.08,-632.62,610.72,978.17" projParameter="!" />

    <edge id=":A_0" function="internal">
        <lane id=":A_0_0" index="0" speed="8.10" length="14.57" shape="474.68,1141.70,-0.30 474.33,1136.45,-0.30 473.28,1132.70,-0.30 471.53,1130.45,-0.30 469.08,1129.70,-0.30" />
    </edge>
    <edge id=":A_1" function="internal">
        <lane id=":A_1_0" index="0" speed="15.65" length="40.00" shape="474.68,1141.70,-0.30 474.68,1101.70,-0.29" />
        <lane id=":A_1_1" index="1" speed="15.65" length="40.00" shape="477.88,1141.70,-0.30 477.88,1101.70,-0.29" />
        <lane id=":A_1_2" index="2" speed="15.65" length="40.00" shape="481.08,1141.70,-0.30 481.08,1101.70,-0.29" />
        <lane id=":A_1_3" index="3" speed="15.65" length="40.00" shape="484.28,1141.70,-0.30 484.28,1101.70,-0.29" />
        <lane id=":A_1_4" index="4" speed="15.65" length="40.00" shape="487.48,1141.70,-0.30 487.48,1101.70,-0.29" />
    </edge>
    <edge id=":A_6" function="internal">
        <lane id=":A_6_0" index="0" speed="11.39" length="7.04" shape="487.48,1141.70,-0.30 488.19,1134.69,-0.30" />
    </edge>
    <edge id=":A_7" function="internal">
        <lane id=":A_7_0" index="0" speed="3.65" length="1.44" shape="487.48,1141.70,-0.30 488.28,1140.50,-0.30" />
    </edge>
    <edge id=":A_28" function="internal">
        <lane id=":A_28_0" index="0" speed="11.39" length="22.81" shape="488.19,1134.69,-0.30 488.43,1132.25,-0.30 491.28,1125.50,-0.30 496.03,1121.45,-0.30 502.68,1120.10,-0.30" />
    </edge>
    <edge id=":A_29" function="internal">
        <lane id=":A_29_0" index="0" speed="3.65" length="3.23" shape="488.28,1140.50,-0.30 489.08,1140.10,-0.30 489.88,1140.50,-0.30 490.68,1141.70,-0.30" />
    </edge>
    <edge id=":A_8" function="internal">
        <lane id=":A_8_0" index="0" speed="6.51" length="9.03" shape="502.68,1136.10,-0.30 500.23,1136.45,-0.30 498.48,1137.50,-0.30 497.43,1139.25,-0.30 497.08,1141.70,-0.30" />
    </edge>
    <edge id=":A_9" function="internal">
        <lane id=":A_9_0" index="0" speed="15.65" length="33.80" shape="502.68,1132.90,-0.30 492.42,1132.40,-0.30 485.18,1131.30,-0.30 478.29,1130.20,-0.30 469.08,1129.70,-0.30" />
        <lane id=":A_9_1" index="1" speed="15.65" length="33.80" shape="502.68,1129.70,-0.30 492.42,1129.20,-0.30 485.18,1128.10,-0.30 478.29,1127.00,-0.30 469.08,1126.50,-0.30" />
        <lane id=":A_9_2" index="2" speed="15.65" length="33.80" shape="502.68,1126.50,-0.30 492.42,1126.00,-0.30 485.18,1124.90,-0.30 478.29,1123.80,-0.30 469.08,1123.30,-0.30" />
    </edge>
    <edge id=":A_12" function="internal">
        <lane id=":A_12_0" index="0" speed="11.84" length="6.28" shape="502.68,1123.30,-0.30 496.49,1122.26,-0.30" />
        <lane id=":A_12_1" index="1" speed="11.39" length="4.84" shape="502.68,1123.30,-0.30 497.94,1122.34,-0.30" />
    </edge>
    <edge id=":A_14" function="internal">
        <lane id=":A_14_0" index="0" speed="3.65" length="1.44" shape="502.68,1123.30,-0.30 501.48,1122.50,-0.30" />
    </edge>
    <edge id=":A_30" function="internal">
        <lane id=":A_30_0" index="0" speed="11.84" length="26.02" shape="496.49,1122.26,-0.30 494.63,1121.95,-0.30 488.88,1117.90,-0.29 485.43,1111.15,-0.29 484.28,1101.70,-0.29" />
    </edge>
    <edge id=":A_31" function="internal">
        <lane id=":A_31_0" index="0" speed="11.39" length="25.01" shape="497.94,1122.34,-0.30 496.03,1121.95,-0.30 491.28,1117.90,-0.29 488.43,1111.15,-0.29 487.48,1101.70,-0.29" />
    </edge>
    <edge id=":A_32" function="internal">
        <lane id=":A_32_0" index="0" speed="3.65" length="3.23" shape="501.48,1122.50,-0.30 501.08,1121.70,-0.30 501.48,1120.90,-0.30 502.68,1120.10,-0.30" />
    </edge>
    <edge id=":A_15" function="internal">
        <lane id=":A_15_0" index="0" speed="8.10" length="14.57" shape="497.08,1101.70,-0.29 497.43,1106.95,-0.29 498.48,1110.70,-0.29 500.23,1112.95,-0.30 502.68,1113.70,-0.30" />
    </edge>
    <edge id=":A_16" function="internal">
        <lane id=":A_16_0" index="0" speed="15.65" length="40.00" shape="497.08,1101.70,-0.29 497.08,1141.70,-0.30" />
        <lane id=":A_16_1" index="1" speed="15.65" length="40.00" shape="493.88,1101.70,-0.29 493.88,1141.70,-0.30" />
        <lane id=":A_16_2" index="2" speed="15.65" length="40.00" shape="490.68,1101.70,-0.29 490.68,1141.70,-0.30" />
    </edge>
    <edge id=":A_19" function="internal">
        <lane id=":A_19_0" index="0" speed="12.28" length="5.01" shape="490.68,1101.70,-0.29 489.98,1106.67,-0.29" />
    </edge>
    <edge id=":A_20" function="internal">
        <lane id=":A_20_0" index="0" speed="3.65" length="1.44" shape="490.68,1101.70,-0.29 489.88,1102.90,-0.29" />
    </edge>
    <edge id=":A_33" function="internal">
        <lane id=":A_33_0" index="0" speed="12.28" length="29.82" shape="489.98,1106.67,-0.29 489.33,1111.15,-0.29 485.28,1117.90,-0.29 478.53,1121.95,-0.29 469.08,1123.30,-0.30" />
    </edge>
    <edge id=":A_34" function="internal">
        <lane id=":A_34_0" index="0" speed="3.65" length="3.23" shape="489.88,1102.90,-0.29 489.08,1103.30,-0.29 488.28,1102.90,-0.29 487.48,1101.70,-0.29" />
    </edge>
    <edge id=":A_21" function="internal">
        <lane id=":A_21_0" index="0" speed="6.51" length="9.03" shape="469.08,1107.30,-0.30 471.53,1106.95,-0.29 473.28,1105.90,-0.29 474.33,1104.15,-0.29 474.68,1101.70,-0.29" />
        <lane id=":A_21_1" index="1" speed="7.33" length="11.73" shape="469.08,1107.30,-0.30 472.93,1106.95,-0.29 475.68,1105.90,-0.29 477.33,1104.15,-0.29 477.88,1101.70,-0.29" />
    </edge>
    <edge id=":A_23" function="internal">
        <lane id=":A_23_0" index="0" speed="15.65" length="33.80" shape="469.08,1110.50,-0.30 479.34,1111.00,-0.30 486.59,1112.10,-0.30 493.48,1113.20,-0.30 502.68,1113.70,-0.30" />
        <lane id=":A_23_1" index="1" speed="15.65" length="33.80" shape="469.08,1113.70,-0.30 479.34,1114.20,-0.30 486.59,1115.30,-0.30 493.48,1116.40,-0.30 502.68,1116.90,-0.30" />
        <lane id=":A_23_2" index="2" speed="15.65" length="33.80" shape="469.08,1116.90,-0.30 479.34,1117.40,-0.30 486.59,1118.50,-0.30 493.48,1119.60,-0.30 502.68,1120.10,-0.30" />
    </edge>
    <edge id=":A_26" function="internal">
        <lane id=":A_26_0" index="0" speed="12.28" length="7.98" shape="469.08,1120.10,-0.30 476.99,1121.23,-0.30" />
    </edge>
    <edge id=":A_27" function="internal">
        <lane id=":A_27_0" index="0" speed="3.65" length="1.44" shape="469.08,1120.10,-0.30 470.28,1120.90,-0.30" />
    </edge>
    <edge id=":A_35" function="internal">
        <lane id=":A_35_0" index="0" speed="12.28" length="26.85" shape="476.99,1121.23,-0.30 478.53,1121.45,-0.30 485.28,1125.50,-0.30 489.33,1132.25,-0.30 490.68,1141.70,-0.30" />
    </edge>
    <edge id=":A_36" function="internal">
        <lane id=":A_36_0" index="0" speed="3.65" length="3.23" shape="470.28,1120.90,-0.30 470.68,1121.70,-0.30 470.28,1122.50,-0.30 469.08,1123.30,-0.30" />
    </edge>
    <edge id=":AA_0" function="internal">
        <lane id=":AA_0_0" index="0" speed="3.65" length="4.67" shape="-0.00,1123.30,-0.30 -1.20,1122.50,-0.30 -1.60,1121.70,-0.30 -1.20,1120.90,-0.30 -0.00,1120.10,-0.30" />
    </edge>
    <edge id=":AB_0" function="internal">
        <lane id=":AB_0_0" index="0" speed="3.65" length="4.67" shape="490.68,1610.79,-0.30 489.88,1611.99,-0.30 489.08,1612.39,-0.30 488.28,1611.99,-0.30 487.48,1610.79,-0.30" />
    </edge>
    <edge id=":AC_0" function="internal">
        <lane id=":AC_0_0" index="0" speed="3.65" length="4.67" shape="978.17,1120.10,-0.30 979.37,1120.90,-0.30 979.77,1121.70,-0.30 979.37,1122.50,-0.30 978.17,1123.30,-0.30" />
    </edge>
    <edge id=":B_0" function="internal">
        <lane id=":B_0_0" index="0" speed="6.51" length="9.03" shape="789.64,643.02,0.93 789.29,640.57,0.92 788.24,638.82,0.91 786.49,637.77,0.91 784.04,637.42,0.90" />
    </edge>
    <edge id=":B_1" function="internal">
        <lane id=":B_1_0" index="0" speed="13.41" length="20.80" shape="789.64,643.02,0.93 789.64,622.22,0.93" />
        <lane id=":B_1_1" index="1" speed="13.41" length="20.80" shape="792.84,643.02,0.93 792.84,622.22,0.93" />
    </edge>
    <edge id=":B_3" function="internal">
        <lane id=":B_3_0" index="0" speed="9.26" length="5.01" shape="792.84,643.02,0.93 793.55,638.05,0.93" />
    </edge>
    <edge id=":B_4" function="internal">
        <lane id=":B_4_0" index="0" speed="3.65" length="1.44" shape="792.84,643.02,0.93 793.64,641.82,0.93" />
    </edge>
    <edge id=":B_20" function="internal">
        <lane id=":B_20_0" index="0" speed="9.26" length="14.34" shape="793.55,638.05,0.93 793.59,637.77,0.93 795.84,634.02,0.93 799.59,631.77,0.93 804.84,631.02,0.93" />
    </edge>
    <edge id=":B_21" function="internal">
        <lane id=":B_21_0" index="0" speed="3.65" length="3.23" shape="793.64,641.82,0.93 794.44,641.42,0.93 795.24,641.82,0.93 796.04,643.02,0.93" />
    </edge>
    <edge id=":B_5" function="internal">
        <lane id=":B_5_0" index="0" speed="6.51" length="9.03" shape="804.84,637.42,0.93 802.39,637.77,0.93 800.64,638.82,0.93 799.59,640.57,0.93 799.24,643.02,0.93" />
    </edge>
    <edge id=":B_6" function="internal">
        <lane id=":B_6_0" index="0" speed="13.41" length="20.80" shape="804.84,637.42,0.93 784.04,637.42,0.90" />
        <lane id=":B_6_1" index="1" speed="13.41" length="20.80" shape="804.84,634.22,0.93 784.04,634.22,0.90" />
    </edge>
    <edge id=":B_8" function="internal">
        <lane id=":B_8_0" index="0" speed="9.26" length="5.01" shape="804.84,634.22,0.93 799.88,633.51,0.93" />
    </edge>
    <edge id=":B_9" function="internal">
        <lane id=":B_9_0" index="0" speed="3.65" length="1.44" shape="804.84,634.22,0.93 803.64,633.42,0.93" />
    </edge>
    <edge id=":B_22" function="internal">
        <lane id=":B_22_0" index="0" speed="9.26" length="14.34" shape="799.88,633.51,0.93 799.59,633.47,0.93 795.84,631.22,0.93 793.59,627.47,0.93 792.84,622.22,0.93" />
    </edge>
    <edge id=":B_23" function="internal">
        <lane id=":B_23_0" index="0" speed="3.65" length="3.23" shape="803.64,633.42,0.93 803.24,632.62,0.93 803.64,631.82,0.93 804.84,631.02,0.93" />
    </edge>
    <edge id=":B_10" function="internal">
        <lane id=":B_10_0" index="0" speed="6.51" length="9.03" shape="799.24,622.22,0.93 799.59,624.67,0.93 800.64,626.42,0.93 802.39,627.47,0.93 804.84,627.82,0.93" />
    </edge>
    <edge id=":B_11" function="internal">
        <lane id=":B_11_0" index="0" speed="13.41" length="20.80" shape="799.24,622.22,0.93 799.24,643.02,0.93" />
        <lane id=":B_11_1" index="1" speed="13.41" length="20.80" shape="796.04,622.22,0.93 796.04,643.02,0.93" />
    </edge>
    <edge id=":B_13" function="internal">
        <lane id=":B_13_0" index="0" speed="9.26" length="5.01" shape="796.04,622.22,0.93 795.34,627.18,0.92" />
    </edge>
    <edge id=":B_14" function="internal">
        <lane id=":B_14_0" index="0" speed="3.65" length="1.44" shape="796.04,622.22,0.93 795.24,623.42,0.93" />
    </edge>
    <edge id=":B_24" function="internal">
        <lane id=":B_24_0" index="0" speed="9.26" length="14.34" shape="795.34,627.18,0.92 795.29,627.47,0.92 793.04,631.22,0.91 789.29,633.47,0.91 784.04,634.22,0.90" />
    </edge>
    <edge id=":B_25" function="internal">
        <lane id=":B_25_0" index="0" speed="3.65" length="3.23" shape="795.24,623.42,0.93 794.44,623.82,0.93 793.64,623.42,0.93 792.84,622.22,0.93" />
    </edge>
    <edge id=":B_15" function="internal">
        <lane id=":B_15_0" index="0" speed="6.51" length="9.03" shape="784.04,627.82,0.90 786.49,627.47,0.91 788.24,626.42,0.91 789.29,624.67,0.92 789.64,622.22,0.93" />
    </edge>
    <edge id=":B_16" function="internal">
        <lane id=":B_16_0" index="0" speed="13.41" length="20.80" shape="784.04,627.82,0.90 804.84,627.82,0.93" />
        <lane id=":B_16_1" index="1" speed="13.41" length="20.80" shape="784.04,631.02,0.90 804.84,631.02,0.93" />
    </edge>
    <edge id=":B_18" function="internal">
        <lane id=":B_18_0" index="0" speed="9.26" length="5.01" shape="784.04,631.02,0.90 789.01,631.73,0.91" />
    </edge>
    <edge id=":B_19" function="internal">
        <lane id=":B_19_0" index="0" speed="3.65" length="1.44" shape="784.04,631.02,0.90 785.24,631.82,0.90" />
    </edge>
    <edge id=":B_26" function="internal">
        <lane id=":B_26_0" index="0" speed="9.26" length="14.34" shape="789.01,631.73,0.91 789.29,631.77,0.91 793.04,634.02,0.91 795.29,637.77,0.92 796.04,643.02,0.93" />
    </edge>
    <edge id=":B_27" function="internal">
        <lane id=":B_27_0" index="0" speed="3.65" length="3.23" shape="785.24,631.82,0.90 785.64,632.62,0.90 785.24,633.42,0.90 784.04,634.22,0.90" />
    </edge>
    <edge id=":BA_0" function="internal">
        <lane id=":BA_0_0" index="0" speed="3.65" length="4.67" shape="796.04,937.98,0.93 795.24,939.18,0.93 794.44,939.58,0.93 793.64,939.18,0.93 792.84,937.98,0.93" />
    </edge>
    <edge id=":BB_0" function="internal">
        <lane id=":BB_0_0" index="0" speed="3.65" length="4.67" shape="1099.80,631.02,0.93 1101.00,631.82,0.93 1101.40,632.62,0.93 1101.00,633.42,0.93 1099.80,634.22,0.93" />
    </edge>
    <edge id=":BC_0" function="internal">
        <lane id=":BC_0_0" index="0" speed="3.65" length="4.67" shape="792.84,327.26,0.93 793.64,326.06,0.93 794.44,325.66,0.93 795.24,326.06,0.93 796.04,327.26,0.93" />
    </edge>
    <edge id=":C_0" function="internal">
        <lane id=":C_0_0" index="0" speed="6.51" length="9.03" shape="481.08,329.91,-0.65 480.73,327.46,-0.65 479.68,325.71,-0.66 477.93,324.66,-0.67 475.48,324.31,-0.67" />
    </edge>
    <edge id=":C_1" function="internal">
        <lane id=":C_1_0" index="0" speed="15.65" length="27.20" shape="481.08,329.91,-0.65 481.08,302.71,-0.67" />
        <lane id=":C_1_1" index="1" speed="15.65" length="27.20" shape="484.28,329.91,-0.65 484.28,302.71,-0.67" />
        <lane id=":C_1_2" index="2" speed="15.65" length="27.20" shape="487.48,329.91,-0.65 487.48,302.71,-0.67" />
    </edge>
    <edge id=":C_4" function="internal">
        <lane id=":C_4_0" index="0" speed="10.36" length="5.01" shape="487.48,329.91,-0.65 488.19,324.95,-0.65" />
    </edge>
    <edge id=":C_5" function="internal">
        <lane id=":C_5_0" index="0" speed="3.65" length="1.44" shape="487.48,329.91,-0.65 488.28,328.71,-0.65" />
    </edge>
    <edge id=":C_24" function="internal">
        <lane id=":C_24_0" index="0" speed="10.36" length="19.50" shape="488.19,324.95,-0.65 488.43,323.26,-0.65 491.28,318.51,-0.66 496.03,315.66,-0.67 502.68,314.71,-0.67" />
    </edge>
    <edge id=":C_25" function="internal">
        <lane id=":C_25_0" index="0" speed="3.65" length="3.23" shape="488.28,328.71,-0.65 489.08,328.31,-0.65 489.88,328.71,-0.65 490.68,329.91,-0.65" />
    </edge>
    <edge id=":C_6" function="internal">
        <lane id=":C_6_0" index="0" speed="6.51" length="9.03" shape="502.68,324.31,-0.67 500.23,324.66,-0.67 498.48,325.71,-0.66 497.43,327.46,-0.65 497.08,329.91,-0.65" />
    </edge>
    <edge id=":C_7" function="internal">
        <lane id=":C_7_0" index="0" speed="15.65" length="27.20" shape="502.68,324.31,-0.67 475.48,324.31,-0.67" />
        <lane id=":C_7_1" index="1" speed="15.65" length="27.20" shape="502.68,321.11,-0.67 475.48,321.11,-0.67" />
        <lane id=":C_7_2" index="2" speed="15.65" length="27.20" shape="502.68,317.91,-0.67 475.48,317.91,-0.67" />
    </edge>
    <edge id=":C_10" function="internal">
        <lane id=":C_10_0" index="0" speed="10.36" length="5.01" shape="502.68,317.91,-0.67 497.72,317.20,-0.67" />
    </edge>
    <edge id=":C_11" function="internal">
        <lane id=":C_11_0" index="0" speed="3.65" length="1.44" shape="502.68,317.91,-0.67 501.48,317.11,-0.67" />
    </edge>
    <edge id=":C_26" function="internal">
        <lane id=":C_26_0" index="0" speed="10.36" length="19.50" shape="497.72,317.20,-0.67 496.03,316.96,-0.67 491.28,314.11,-0.67 488.43,309.36,-0.67 487.48,302.71,-0.67" />
    </edge>
    <edge id=":C_27" function="internal">
        <lane id=":C_27_0" index="0" speed="3.65" length="3.23" shape="501.48,317.11,-0.67 501.08,316.31,-0.67 501.48,315.51,-0.67 502.68,314.71,-0.67" />
    </edge>
    <edge id=":C_12" function="internal">
        <lane id=":C_12_0" index="0" speed="6.51" length="9.03" shape="497.08,302.71,-0.67 497.43,305.16,-0.67 498.48,306.91,-0.67 500.23,307.96,-0.67 502.68,308.31,-0.67" />
    </edge>
    <edge id=":C_13" function="internal">
        <lane id=":C_13_0" index="0" speed="15.65" length="27.20" shape="497.08,302.71,-0.67 497.08,329.91,-0.65" />
        <lane id=":C_13_1" index="1" speed="15.65" length="27.20" shape="493.88,302.71,-0.67 493.88,329.91,-0.65" />
        <lane id=":C_13_2" index="2" speed="15.65" length="27.20" shape="490.68,302.71,-0.67 490.68,329.91,-0.65" />
    </edge>
    <edge id=":C_16" function="internal">
        <lane id=":C_16_0" index="0" speed="10.36" length="5.01" shape="490.68,302.71,-0.67 489.98,307.67,-0.67" />
    </edge>
    <edge id=":C_17" function="internal">
        <lane id=":C_17_0" index="0" speed="3.65" length="1.44" shape="490.68,302.71,-0.67 489.88,303.91,-0.67" />
    </edge>
    <edge id=":C_28" function="internal">
        <lane id=":C_28_0" index="0" speed="10.36" length="19.50" shape="489.98,307.67,-0.67 489.73,309.36,-0.67 486.88,314.11,-0.67 482.13,316.96,-0.67 475.48,317.91,-0.67" />
    </edge>
    <edge id=":C_29" function="internal">
        <lane id=":C_29_0" index="0" speed="3.65" length="3.23" shape="489.88,303.91,-0.67 489.08,304.31,-0.67 488.28,303.91,-0.67 487.48,302.71,-0.67" />
    </edge>
    <edge id=":C_18" function="internal">
        <lane id=":C_18_0" index="0" speed="6.51" length="9.03" shape="475.48,308.31,-0.67 477.93,307.96,-0.67 479.68,306.91,-0.67 480.73,305.16,-0.67 481.08,302.71,-0.67" />
    </edge>
    <edge id=":C_19" function="internal">
        <lane id=":C_19_0" index="0" speed="15.65" length="27.20" shape="475.48,308.31,-0.67 502.68,308.31,-0.67" />
        <lane id=":C_19_1" index="1" speed="15.65" length="27.20" shape="475.48,311.51,-0.67 502.68,311.51,-0.67" />
        <lane id=":C_19_2" index="2" speed="15.65" length="27.20" shape="475.48,314.71,-0.67 502.68,314.71,-0.67" />
    </edge>
    <edge id=":C_22" function="internal">
        <lane id=":C_22_0" index="0" speed="10.36" length="5.01" shape="475.48,314.71,-0.67 480.45,315.42,-0.67" />
    </edge>
    <edge id=":C_23" function="internal">
        <lane id=":C_23_0" index="0" speed="3.65" length="1.44" shape="475.48,314.71,-0.67 476.68,315.51,-0.67" />
    </edge>
    <edge id=":C_30" function="internal">
        <lane id=":C_30_0" index="0" speed="10.36" length="19.50" shape="480.45,315.42,-0.67 482.13,315.66,-0.67 486.88,318.51,-0.66 489.73,323.26,-0.65 490.68,329.91,-0.65" />
    </edge>
    <edge id=":C_31" function="internal">
        <lane id=":C_31_0" index="0" speed="3.65" length="3.23" shape="476.68,315.51,-0.67 477.08,316.31,-0.67 476.68,317.11,-0.67 475.48,317.91,-0.67" />
    </edge>
    <edge id=":CA_0" function="internal">
        <lane id=":CA_0_0" index="0" speed="3.65" length="4.67" shape="805.39,314.71,-0.67 806.59,315.51,-0.67 806.99,316.31,-0.67 806.59,317.11,-0.67 805.39,317.91,-0.67" />
    </edge>
    <edge id=":CB_0" function="internal">
        <lane id=":CB_0_0" index="0" speed="3.65" length="4.67" shape="487.48,-0.00,-0.67 488.28,-1.20,-0.67 489.08,-1.60,-0.67 489.88,-1.20,-0.67 490.68,0.00,-0.67" />
    </edge>
    <edge id=":CC_0" function="internal">
        <lane id=":CC_0_0" index="0" speed="3.65" length="4.67" shape="172.77,317.91,-0.67 171.57,317.11,-0.67 171.17,316.31,-0.67 171.57,315.51,-0.67 172.77,314.71,-0.67" />
    </edge>
    <edge id=":D_0" function="internal">
        <lane id=":D_0_0" index="0" speed="6.51" length="9.03" shape="324.32,643.02,0.59 323.97,640.57,0.59 322.92,638.82,0.59 321.17,637.77,0.59 318.72,637.42,0.59" />
    </edge>
    <edge id=":D_1" function="internal">
        <lane id=":D_1_0" index="0" speed="13.41" length="20.80" shape="324.32,643.02,0.59 324.32,622.22,0.59" />
        <lane id=":D_1_1" index="1" speed="13.41" length="20.80" shape="327.52,643.02,0.59 327.52,622.22,0.59" />
    </edge>
    <edge id=":D_3" function="internal">
        <lane id=":D_3_0" index="0" speed="9.26" length="5.01" shape="327.52,643.02,0.59 328.23,638.05,0.58" />
    </edge>
    <edge id=":D_4" function="internal">
        <lane id=":D_4_0" index="0" speed="3.65" length="1.44" shape="327.52,643.02,0.59 328.32,641.82,0.59" />
    </edge>
    <edge id=":D_20" function="internal">
        <lane id=":D_20_0" index="0" speed="9.26" length="14.34" shape="328.23,638.05,0.58 328.27,637.77,0.57 330.52,634.02,0.57 334.27,631.77,0.56 339.52,631.02,0.55" />
    </edge>
    <edge id=":D_21" function="internal">
        <lane id=":D_21_0" index="0" speed="3.65" length="3.23" shape="328.32,641.82,0.59 329.12,641.42,0.59 329.92,641.82,0.59 330.72,643.02,0.59" />
    </edge>
    <edge id=":D_5" function="internal">
        <lane id=":D_5_0" index="0" speed="6.51" length="9.03" shape="339.52,637.42,0.55 337.07,637.77,0.56 335.32,638.82,0.57 334.27,640.57,0.57 333.92,643.02,0.59" />
    </edge>
    <edge id=":D_6" function="internal">
        <lane id=":D_6_0" index="0" speed="13.41" length="20.80" shape="339.52,637.42,0.55 318.72,637.42,0.59" />
        <lane id=":D_6_1" index="1" speed="13.41" length="20.80" shape="339.52,634.22,0.55 318.72,634.22,0.59" />
    </edge>
    <edge id=":D_8" function="internal">
        <lane id=":D_8_0" index="0" speed="9.26" length="5.01" shape="339.52,634.22,0.55 334.55,633.51,0.56" />
    </edge>
    <edge id=":D_9" function="internal">
        <lane id=":D_9_0" index="0" speed="3.65" length="1.44" shape="339.52,634.22,0.55 338.32,633.42,0.55" />
    </edge>
    <edge id=":D_22" function="internal">
        <lane id=":D_22_0" index="0" speed="9.26" length="14.34" shape="334.55,633.51,0.56 334.27,633.47,0.56 330.52,631.22,0.57 328.27,627.47,0.57 327.52,622.22,0.59" />
    </edge>
    <edge id=":D_23" function="internal">
        <lane id=":D_23_0" index="0" speed="3.65" length="3.23" shape="338.32,633.42,0.55 337.92,632.62,0.55 338.32,631.82,0.55 339.52,631.02,0.55" />
    </edge>
    <edge id=":D_10" function="internal">
        <lane id=":D_10_0" index="0" speed="6.51" length="9.03" shape="333.92,622.22,0.59 334.27,624.67,0.57 335.32,626.42,0.57 337.07,627.47,0.56 339.52,627.82,0.55" />
    </edge>
    <edge id=":D_11" function="internal">
        <lane id=":D_11_0" index="0" speed="13.41" length="20.80" shape="333.92,622.22,0.59 333.92,643.02,0.59" />
        <lane id=":D_11_1" index="1" speed="13.41" length="20.80" shape="330.72,622.22,0.59 330.72,643.02,0.59" />
    </edge>
    <edge id=":D_13" function="internal">
        <lane id=":D_13_0" index="0" speed="9.26" length="5.01" shape="330.72,622.22,0.59 330.01,627.18,0.59" />
    </edge>
    <edge id=":D_14" function="internal">
        <lane id=":D_14_0" index="0" speed="3.65" length="1.44" shape="330.72,622.22,0.59 329.92,623.42,0.59" />
    </edge>
    <edge id=":D_24" function="internal">
        <lane id=":D_24_0" index="0" speed="9.26" length="14.34" shape="330.01,627.18,0.59 329.97,627.47,0.59 327.72,631.22,0.59 323.97,633.47,0.59 318.72,634.22,0.59" />
    </edge>
    <edge id=":D_25" function="internal">
        <lane id=":D_25_0" index="0" speed="3.65" length="3.23" shape="329.92,623.42,0.59 329.12,623.82,0.59 328.32,623.42,0.59 327.52,622.22,0.59" />
    </edge>
    <edge id=":D_15" function="internal">
        <lane id=":D_15_0" index="0" speed="6.51" length="9.03" shape="318.72,627.82,0.59 321.17,627.47,0.59 322.92,626.42,0.59 323.97,624.67,0.59 324.32,622.22,0.59" />
    </edge>
    <edge id=":D_16" function="internal">
        <lane id=":D_16_0" index="0" speed="13.41" length="20.80" shape="318.72,627.82,0.59 339.52,627.82,0.55" />
        <lane id=":D_16_1" index="1" speed="13.41" length="20.80" shape="318.72,631.02,0.59 339.52,631.02,0.55" />
    </edge>
    <edge id=":D_18" function="internal">
        <lane id=":D_18_0" index="0" speed="9.26" length="5.01" shape="318.72,631.02,0.59 323.68,631.73,0.59" />
    </edge>
    <edge id=":D_19" function="internal">
        <lane id=":D_19_0" index="0" speed="3.65" length="1.44" shape="318.72,631.02,0.59 319.92,631.82,0.59" />
    </edge>
    <edge id=":D_26" function="internal">
        <lane id=":D_26_0" index="0" speed="9.26" length="14.34" shape="323.68,631.73,0.59 323.97,631.77,0.59 327.72,634.02,0.59 329.97,637.77,0.59 330.72,643.02,0.59" />
    </edge>
    <edge id=":D_27" function="internal">
        <lane id=":D_27_0" index="0" speed="3.65" length="3.23" shape="319.92,631.82,0.59 320.32,632.62,0.59 319.92,633.42,0.59 318.72,634.22,0.59" />
    </edge>
    <edge id=":DA_0" function="internal">
        <lane id=":DA_0_0" index="0" speed="3.65" length="4.67" shape="327.52,472.65,0.59 328.32,471.45,0.59 329.12,471.05,0.59 329.92,471.45,0.59 330.72,472.65,0.59" />
    </edge>
    <edge id=":DB_0" function="internal">
        <lane id=":DB_0_0" index="0" speed="3.65" length="4.67" shape="169.15,634.22,0.59 167.95,633.42,0.59 167.55,632.62,0.59 167.95,631.82,0.59 169.15,631.02,0.59" />
    </edge>
    <edge id=":DC_0" function="internal">
        <lane id=":DC_0_0" index="0" speed="3.65" length="4.67" shape="330.72,792.58,0.59 329.92,793.78,0.59 329.12,794.18,0.59 328.32,793.78,0.59 327.52,792.58,0.59" />
    </edge>
    <edge id=":D_intern_0" function="internal">
        <lane id=":D_intern_0_0" index="0" speed="13.41" length="8.54" shape="435.08,627.82,0.20 437.55,627.32,0.19 439.08,626.22,0.18 440.62,625.12,0.18 443.08,624.62,0.17" />
        <lane id=":D_intern_0_1" index="1" speed="13.41" length="8.54" shape="435.08,631.02,0.20 437.55,630.52,0.19 439.08,629.42,0.18 440.62,628.32,0.18 443.08,627.82,0.17" />
        <lane id=":D_intern_0_2" index="2" speed="13.41" length="8.54" shape="435.08,631.02,0.20 443.08,631.02,0.17" />
    </edge>
    <edge id=":TL_0" function="internal">
        <lane id=":TL_0_0" index="0" speed="6.51" length="9.03" shape="474.68,643.02,-0.01 474.33,640.57,0.02 473.28,638.82,0.03 471.53,637.77,0.05 469.08,637.42,0.07" />
    </edge>
    <edge id=":TL_1" function="internal">
        <lane id=":TL_1_0" index="0" speed="15.65" length="24.28" shape="477.88,643.02,-0.01 478.38,635.86,-0.01 479.48,631.02,-0.02 480.58,626.17,-0.02 481.08,619.02,-0.03" />
        <lane id=":TL_1_1" index="1" speed="15.65" length="24.28" shape="481.08,643.02,-0.01 481.58,635.86,-0.01 482.68,631.02,-0.02 483.78,626.17,-0.02 484.28,619.02,-0.03" />
        <lane id=":TL_1_2" index="2" speed="15.65" length="24.28" shape="484.28,643.02,-0.01 484.78,635.86,-0.01 485.88,631.02,-0.02 486.98,626.17,-0.02 487.48,619.02,-0.03" />
    </edge>
    <edge id=":TL_4" function="internal">
        <lane id=":TL_4_0" index="0" speed="9.84" length="4.01" shape="487.48,643.02,-0.01 488.20,639.07,0.00" />
    </edge>
    <edge id=":TL_18" function="internal">
        <lane id=":TL_18_0" index="0" speed="9.84" length="17.98" shape="488.20,639.07,0.00 488.43,637.77,0.01 491.28,634.02,0.02 496.03,631.77,0.03 502.68,631.02,0.04" />
    </edge>
    <edge id=":TL_5" function="internal">
        <lane id=":TL_5_0" index="0" speed="6.51" length="9.03" shape="502.68,637.42,0.04 500.23,637.77,0.03 498.48,638.82,0.02 497.43,640.57,0.01 497.08,643.02,-0.01" />
    </edge>
    <edge id=":TL_6" function="internal">
        <lane id=":TL_6_0" index="0" speed="13.41" length="33.60" shape="502.68,637.42,0.04 469.08,637.42,0.07" />
        <lane id=":TL_6_1" index="1" speed="13.41" length="33.60" shape="502.68,634.22,0.04 469.08,634.22,0.07" />
    </edge>
    <edge id=":TL_8" function="internal">
        <lane id=":TL_8_0" index="0" speed="10.36" length="7.00" shape="502.68,634.22,0.04 496.03,633.27,0.02 495.79,633.12,0.02" />
    </edge>
    <edge id=":TL_19" function="internal">
        <lane id=":TL_19_0" index="0" speed="10.36" length="17.51" shape="495.79,633.12,0.02 491.28,630.42,0.01 488.43,625.67,-0.01 487.48,619.02,-0.03" />
    </edge>
    <edge id=":TL_9" function="internal">
        <lane id=":TL_9_0" index="0" speed="7.33" length="11.73" shape="497.08,619.02,-0.03 497.43,622.87,-0.01 498.48,625.62,0.01 500.23,627.27,0.03 502.68,627.82,0.04" />
    </edge>
    <edge id=":TL_10" function="internal">
        <lane id=":TL_10_0" index="0" speed="15.65" length="24.00" shape="497.08,619.02,-0.03 497.08,643.02,-0.01" />
        <lane id=":TL_10_1" index="1" speed="15.65" length="24.00" shape="493.88,619.02,-0.03 493.88,643.02,-0.01" />
        <lane id=":TL_10_2" index="2" speed="15.65" length="24.00" shape="490.68,619.02,-0.03 490.68,643.02,-0.01" />
    </edge>
    <edge id=":TL_13" function="internal">
        <lane id=":TL_13_0" index="0" speed="11.39" length="5.38" shape="490.68,619.02,-0.03 489.61,624.29,-0.01" />
    </edge>
    <edge id=":TL_20" function="internal">
        <lane id=":TL_20_0" index="0" speed="11.39" length="24.48" shape="489.61,624.29,-0.01 489.33,625.67,-0.01 485.28,630.42,0.02 478.53,633.27,0.04 469.08,634.22,0.07" />
    </edge>
    <edge id=":TL_14" function="internal">
        <lane id=":TL_14_0" index="0" speed="8.10" length="14.57" shape="469.08,624.62,0.07 474.33,624.27,0.04 478.08,623.22,0.01 480.33,621.47,-0.01 481.08,619.02,-0.03" />
    </edge>
    <edge id=":TL_15" function="internal">
        <lane id=":TL_15_0" index="0" speed="13.41" length="33.78" shape="469.08,624.62,0.07 479.26,625.12,0.06 487.76,626.22,0.06 495.32,627.32,0.05 502.68,627.82,0.04" />