<net xmlns:xsi="http://www.w3.org/2001/XMLSchema-instance" version="1.9" junctionCornerDetail="5" limitTurnSpeed="5.50" xsi:noNamespaceSchemaLocation="http://sumo.dlr.de/xsd/net_file.xsd">

    <location netOffset="602.14,645.38" convBoundary="0.00,0.00,1220.08,954.36" origBoundary="-602.14,-645.38,617.95,308.97" projParameter="!" />

    <edge id=":A_0" function="internal">
        <lane id=":A_0_0" index="0" speed="6.51" length="9.03" shape="600.54,759.77,-3.56 600.19,757.32,-3.56 599.14,755.57,-3.56 597.39,754.52,-3.56 594.94,754.17,-3.56" />
    </edge>
    <edge id=":A_1" function="internal">
        <lane id=":A_1_0" index="0" speed="8.94" length="14.40" shape="600.54,759.77,-3.56 600.54,745.37,-3.56" />
    </edge>
    <edge id=":A_2" function="internal">
        <lane id=":A_2_0" index="0" speed="8.00" length="4.07" shape="600.54,759.77,-3.56 601.09,755.92,-3.56 601.18,755.77,-3.56" />
    </edge>
    <edge id=":A_3" function="internal">
        <lane id=":A_3_0" index="0" speed="3.65" length="1.44" shape="600.54,759.77,-3.56 601.34,758.57,-3.56" />
    </edge>
    <edge id=":A_16" function="internal">
        <lane id=":A_16_0" index="0" speed="8.00" length="10.13" shape="601.18,755.77,-3.56 602.74,753.17,-3.56 605.49,751.52,-3.56 609.34,750.97,-3.56" />
    </edge>
    <edge id=":A_17" function="internal">
        <lane id=":A_17_0" index="0" speed="3.65" length="3.23" shape="601.34,758.57,-3.56 602.14,758.17,-3.56 602.94,758.57,-3.56 603.74,759.77,-3.56" />
    </edge>
    <edge id=":A_4" function="internal">
        <lane id=":A_4_0" index="0" speed="6.51" length="9.03" shape="609.34,754.17,-3.56 606.89,754.52,-3.56 605.14,755.57,-3.56 604.09,757.32,-3.56 603.74,759.77,-3.56" />
    </edge>
    <edge id=":A_5" function="internal">
        <lane id=":A_5_0" index="0" speed="8.94" length="14.40" shape="609.34,754.17,-3.56 594.94,754.17,-3.56" />
    </edge>
    <edge id=":A_6" function="internal">
        <lane id=":A_6_0" index="0" speed="8.00" length="4.07" shape="609.34,754.17,-3.56 605.49,753.62,-3.56 605.34,753.53,-3.56" />
    </edge>
    <edge id=":A_7" function="internal">
        <lane id=":A_7_0" index="0" speed="3.65" length="1.44" shape="609.34,754.17,-3.56 608.14,753.37,-3.56" />
    </edge>
    <edge id=":A_18" function="internal">
        <lane id=":A_18_0" index="0" speed="8.00" length="10.13" shape="605.34,753.53,-3.56 602.74,751.97,-3.56 601.09,749.22,-3.56 600.54,745.37,-3.56" />
    </edge>
    <edge id=":A_19" function="internal">
        <lane id=":A_19_0" index="0" speed="3.65" length="3.23" shape="608.14,753.37,-3.56 607.74,752.57,-3.56 608.14,751.77,-3.56 609.34,750.97,-3.56" />
    </edge>
    <edge id=":A_8" function="internal">
        <lane id=":A_8_0" index="0" speed="6.51" length="9.03" shape="603.74,745.37,-3.56 604.09,747.82,-3.56 605.14,749.57,-3.56 606.89,750.62,-3.56 609.34,750.97,-3.56" />
    </edge>
    <edge id=":A_9" function="internal">
        <lane id=":A_9_0" index="0" speed="8.94" length="14.40" shape="603.74,745.37,-3.56 603.74,759.77,-3.56" />
    </edge>
    <edge id=":A_10" function="internal">
        <lane id=":A_10_0" index="0" speed="8.00" length="4.07" shape="603.74,745.37,-3.56 603.19,749.22,-3.56 603.10,749.38,-3.56" />
    </edge>
    <edge id=":A_11" function="internal">
        <lane id=":A_11_0" index="0" speed="3.65" length="1.44" shape="603.74,745.37,-3.56 602.94,746.57,-3.56" />
    </edge>
    <edge id=":A_20" function="internal">
        <lane id=":A_20_0" index="0" speed="8.00" length="10.13" shape="603.10,749.38,-3.56 601.54,751.97,-3.56 598.79,753.62,-3.56 594.94,754.17,-3.56" />
    </edge>
    <edge id=":A_21" function="internal">
        <lane id=":A_21_0" index="0" speed="3.65" length="3.23" shape="602.94,746.57,-3.56 602.14,746.97,-3.56 601.34,746.57,-3.56 600.54,745.37,-3.56" />
    </edge>
    <edge id=":A_12" function="internal">
        <lane id=":A_12_0" index="0" speed="6.51" length="9.03" shape="594.94,750.97,-3.56 597.39,750.62,-3.56 599.14,749.57,-3.56 600.19,747.82,-3.56 600.54,745.37,-3.56" />
    </edge>
    <edge id=":A_13" function="internal">
        <lane id=":A_13_0" index="0" speed="8.94" length="14.40" shape="594.94,750.97,-3.56 609.34,750.97,-3.56" />
    </edge>
    <edge id=":A_14" function="internal">
        <lane id=":A_14_0" index="0" speed="8.00" length="4.07" shape="594.94,750.97,-3.56 598.79,751.52,-3.56 598.94,751.62,-3.56" />
    </edge>
    <edge id=":A_15" function="internal">
        <lane id=":A_15_0" index="0" speed="3.65" length="1.44" shape="594.94,750.97,-3.56 596.14,751.77,-3.56" />
    </edge>
    <edge id=":A_22" function="internal">
        <lane id=":A_22_0" index="0" speed="8.00" length="10.13" shape="598.94,751.62,-3.56 601.54,753.17,-3.56 603.19,755.92,-3.56 603.74,759.77,-3.56" />
    </edge>
    <edge id=":A_23" function="internal">
        <lane id=":A_23_0" index="0" speed="3.65" length="3.23" shape="596.14,751.77,-3.56 596.54,752.57,-3.56 596.14,753.37,-3.56 594.94,754.17,-3.56" />
    </edge>
    <edge id=":AA_0" function="internal">
        <lane id=":AA_0_0" index="0" speed="3.65" length="4.67" shape="494.95,754.17,-3.56 493.75,753.37,-3.56 493.35,752.57,-3.56 493.75,751.77,-3.56 494.95,750.97,-3.56" />
    </edge>
    <edge id=":AB_0" function="internal">
        <lane id=":AB_0_0" index="0" speed="3.65" length="4.67" shape="603.74,859.77,-3.56 602.94,860.97,-3.56 602.14,861.37,-3.56 601.34,860.97,-3.56 600.54,859.77,-3.56" />
    </edge>
    <edge id=":AC_0" function="internal">
        <lane id=":AC_0_0" index="0" speed="3.65" length="4.67" shape="709.33,750.97,-3.56 710.53,751.77,-3.56 710.93,752.57,-3.56 710.53,753.37,-3.56 709.33,754.17,-3.56" />
    </edge>
    <edge id=":B_0" function="internal">
        <lane id=":B_0_0" index="0" speed="6.51" length="9.03" shape="906.31,655.78,7.63 905.96,653.33,7.63 904.91,651.58,7.63 903.16,650.53,7.63 900.71,650.18,7.63" />
    </edge>
    <edge id=":B_1" function="internal">
        <lane id=":B_1_0" index="0" speed="13.41" length="20.80" shape="906.31,655.78,7.63 906.31,634.98,7.63" />
        <lane id=":B_1_1" index="1" speed="13.41" length="20.80" shape="909.51,655.78,7.63 909.51,634.98,7.63" />
    </edge>
    <edge id=":B_3" function="internal">
        <lane id=":B_3_0" index="0" speed="9.26" length="5.01" shape="909.51,655.78,7.63 910.22,650.82,7.63" />
    </edge>
    <edge id=":B_4" function="internal">
        <lane id=":B_4_0" index="0" speed="3.65" length="1.44" shape="909.51,655.78,7.63 910.31,654.58,7.63" />
    </edge>
    <edge id=":B_20" function="internal">
        <lane id=":B_20_0" index="0" speed="9.26" length="14.34" shape="910.22,650.82,7.63 910.26,650.53,7.63 912.51,646.78,7.63 916.26,644.53,7.63 921.51,643.78,7.63" />
    </edge>
    <edge id=":B_21" function="internal">
        <lane id=":B_21_0" index="0" speed="3.65" length="3.23" shape="910.31,654.58,7.63 911.11,654.18,7.63 911.91,654.58,7.63 912.71,655.78,7.63" />
    </edge>
    <edge id=":B_5" function="internal">
        <lane id=":B_5_0" index="0" speed="6.51" length="9.03" shape="921.51,650.18,7.63 919.06,650.53,7.63 917.31,651.58,7.63 916.26,653.33,7.63 915.91,655.78,7.63" />
    </edge>
    <edge id=":B_6" function="internal">
        <lane id=":B_6_0" index="0" speed="13.41" length="20.80" shape="921.51,650.18,7.63 900.71,650.18,7.63" />
        <lane id=":B_6_1" index="1" speed="13.41" length="20.80" shape="921.51,646.98,7.63 900.71,646.98,7.63" />
    </edge>
    <edge id=":B_8" function="internal">
        <lane id=":B_8_0" index="0" speed="9.26" length="5.01" shape="921.51,646.98,7.63 916.55,646.27,7.63" />
    </edge>
    <edge id=":B_9" function="internal">
        <lane id=":B_9_0" index="0" speed="3.65" length="1.44" shape="921.51,646.98,7.63 920.31,646.18,7.63" />
    </edge>
    <edge id=":B_22" function="internal">
        <lane id=":B_22_0" index="0" speed="9.26" length="14.34" shape="916.55,646.27,7.63 916.26,646.23,7.63 912.51,643.98,7.63 910.26,640.23,7.63 909.51,634.98,7.63" />
    </edge>
    <edge id=":B_23" function="internal">
        <lane id=":B_23_0" index="0" speed="3.65" length="3.23" shape="920.31,646.18,7.63 919.91,645.38,7.63 920.31,644.58,7.63 921.51,643.78,7.63" />
    </edge>
    <edge id=":B_10" function="internal">
        <lane id=":B_10_0" index="0" speed="6.51" length="9.03" shape="915.91,634.98,7.63 916.26,637.43,7.63 917.31,639.18,7.63 919.06,640.23,7.63 921.51,640.58,7.63" />
    </edge>
    <edge id=":B_11" function="internal">
        <lane id=":B_11_0" index="0" speed="13.41" length="20.80" shape="915.91,634.98,7.63 915.91,655.78,7.63" />
        <lane id=":B_11_1" index="1" speed="13.41" length="20.80" shape="912.71,634.98,7.63 912.71,655.78,7.63" />
    </edge>
    <edge id=":B_13" function="internal">
        <lane id=":B_13_0" index="0" speed="9.26" length="5.01" shape="912.71,634.98,7.63 912.00,639.95,7.63" />
    </edge>
    <edge id=":B_14" function="internal">
        <lane id=":B_14_0" index="0" speed="3.65" length="1.44" shape="912.71,634.98,7.63 911.91,636.18,7.63" />
    </edge>
    <edge id=":B_24" function="internal">
        <lane id=":B_24_0" index="0" speed="9.26" length="14.34" shape="912.00,639.95,7.63 911.96,640.23,7.63 909.71,643.98,7.63 905.96,646.23,7.63 900.71,646.98,7.63" />
    </edge>
    <edge id=":B_25" function="internal">
        <lane id=":B_25_0" index="0" speed="3.65" length="3.23" shape="911.91,636.18,7.63 911.11,636.58,7.63 910.31,636.18,7.63 909.51,634.98,7.63" />
    </edge>
    <edge id=":B_15" function="internal">
        <lane id=":B_15_0" index="0" speed="6.51" length="9.03" shape="900.71,640.58,7.63 903.16,640.23,7.63 904.91,639.18,7.63 905.96,637.43,7.63 906.31,634.98,7.63" />
    </edge>
    <edge id=":B_16" function="internal">
        <lane id=":B_16_0" index="0" speed="13.41" length="20.80" shape="900.71,640.58,7.63 921.51,640.58,7.63" />
        <lane id=":B_16_1" index="1" speed="13.41" length="20.80" shape="900.71,643.78,7.63 921.51,643.78,7.63" />
    </edge>
    <edge id=":B_18" function="internal">
        <lane id=":B_18_0" index="0" speed="9.26" length="5.01" shape="900.71,643.78,7.63 905.67,644.49,7.63" />
    </edge>
    <edge id=":B_19" function="internal">
        <lane id=":B_19_0" index="0" speed="3.65" length="1.44" shape="900.71,643.78,7.63 901.91,644.58,7.63" />
    </edge>
    <edge id=":B_26" function="internal">
        <lane id=":B_26_0" index="0" speed="9.26" length="14.34" shape="905.67,644.49,7.63 905.96,644.53,7.63 909.71,646.78,7.63 911.96,650.53,7.63 912.71,655.78,7.63" />
    </edge>
    <edge id=":B_27" function="internal">
        <lane id=":B_27_0" index="0" speed="3.65" length="3.23" shape="901.91,644.58,7.63 902.31,645.38,7.63 901.91,646.18,7.63 900.71,646.98,7.63" />
    </edge>
    <edge id=":BA_0" function="internal">
        <lane id=":BA_0_0" index="0" speed="3.65" length="4.67" shape="912.71,954.36,7.63 911.91,955.56,7.63 911.11,955.96,7.63 910.31,955.56,7.63 909.51,954.36,7.63" />
    </edge>
    <edge id=":BB_0" function="internal">
        <lane id=":BB_0_0" index="0" speed="3.65" length="4.67" shape="1220.08,643.78,7.63 1221.28,644.58,7.63 1221.68,645.38,7.63 1221.28,646.18,7.63 1220.08,646.98,7.63" />
    </edge>
    <edge id=":BC_0" function="internal">
        <lane id=":BC_0_0" index="0" speed="3.65" length="4.67" shape="909.51,336.41,7.63 910.31,335.21,7.63 911.11,334.81,7.63 911.91,335.21,7.63 912.71,336.41,7.63" />
    </edge>
    <edge id=":C_0" function="internal">
        <lane id=":C_0_0" index="0" speed="6.51" length="9.03" shape="600.54,329.89,9.83 600.19,327.44,9.83 599.14,325.69,9.83 597.39,324.64,9.83 594.94,324.29,9.83" />
    </edge>
    <edge id=":C_1" function="internal">
        <lane id=":C_1_0" index="0" speed="8.94" length="14.40" shape="600.54,329.89,9.83 600.54,315.49,9.83" />
    </edge>
    <edge id=":C_2" function="internal">
        <lane id=":C_2_0" index="0" speed="8.00" length="4.07" shape="600.54,329.89,9.83 601.09,326.04,9.83 601.18,325.89,9.83" />
    </edge>
    <edge id=":C_3" function="internal">
        <lane id=":C_3_0" index="0" speed="3.65" length="1.44" shape="600.54,329.89,9.83 601.34,328.69,9.83" />
    </edge>
    <edge id=":C_16" function="internal">
        <lane id=":C_16_0" index="0" speed="8.00" length="10.13" shape="601.18,325.89,9.83 602.74,323.29,9.83 605.49,321.64,9.83 609.34,321.09,9.83" />
    </edge>
    <edge id=":C_17" function="internal">
        <lane id=":C_17_0" index="0" speed="3.65" length="3.23" shape="601.34,328.69,9.83 602.14,328.29,9.83 602.94,328.69,9.83 603.74,329.89,9.83" />
    </edge>
    <edge id=":C_4" function="internal">
        <lane id=":C_4_0" index="0" speed="6.51" length="9.03" shape="609.34,324.29,9.83 606.89,324.64,9.83 605.14,325.69,9.83 604.09,327.44,9.83 603.74,329.89,9.83" />
    </edge>
    <edge id=":C_5" function="internal">
        <lane id=":C_5_0" index="0" speed="8.94" length="14.40" shape="609.34,324.29,9.83 594.94,324.29,9.83" />
    </edge>
    <edge id=":C_6" function="internal">
        <lane id=":C_6_0" index="0" speed="8.00" length="4.07" shape="609.34,324.29,9.83 605.49,323.74,9.83 605.34,323.65,9.83" />
    </edge>
    <edge id=":C_7" function="internal">
        <lane id=":C_7_0" index="0" speed="3.65" length="1.44" shape="609.34,324.29,9.83 608.14,323.49,9.83" />
    </edge>
    <edge id=":C_18" function="internal">
        <lane id=":C_18_0" index="0" speed="8.00" length="10.13" shape="605.34,323.65,9.83 602.74,322.09,9.83 601.09,319.34,9.83 600.54,315.49,9.83" />
    </edge>
    <edge id=":C_19" function="internal">
        <lane id=":C_19_0" index="0" speed="3.65" length="3.23" shape="608.14,323.49,9.83 607.74,322.69,9.83 608.14,321.89,9.83 609.34,321.09,9.83" />
    </edge>
    <edge id=":C_8" function="internal">
        <lane id=":C_8_0" index="0" speed="6.51" length="9.03" shape="603.74,315.49,9.83 604.09,317.94,9.83 605.14,319.69,9.83 606.89,320.74,9.83 609.34,321.09,9.83" />
    </edge>
    <edge id=":C_9" function="internal">
        <lane id=":C_9_0" index="0" speed="8.94" length="14.40" shape="603.74,315.49,9.83 603.74,329.89,9.83" />
    </edge>
    <edge id=":C_10" function="internal">
        <lane id=":C_10_0" index="0" speed="8.00" length="4.07" shape="603.74,315.49,9.83 603.19,319.34,9.83 603.10,319.49,9.83" />
    </edge>
    <edge id=":C_11" function="internal">
        <lane id=":C_11_0" index="0" speed="3.65" length="1.44" shape="603.74,315.49,9.83 602.94,316.69,9.83" />
    </edge>
    <edge id=":C_20" function="internal">
        <lane id=":C_20_0" index="0" speed="8.00" length="10.13" shape="603.10,319.49,9.83 601.54,322.09,9.83 598.79,323.74,9.83 594.94,324.29,9.83" />
    </edge>
    <edge id=":C_21" function="internal">
        <lane id=":C_21_0" index="0" speed="3.65" length="3.23" shape="602.94,316.69,9.83 602.14,317.09,9.83 601.34,316.69,9.83 600.54,315.49,9.83" />
    </edge>
    <edge id=":C_12" function="internal">
        <lane id=":C_12_0" index="0" speed="6.51" length="9.03" shape="594.94,321.09,9.83 597.39,320.74,9.83 599.14,319.69,9.83 600.19,317.94,9.83 600.54,315.49,9.83" />
    </edge>
    <edge id=":C_13" function="internal">
        <lane id=":C_13_0" index="0" speed="8.94" length="14.40" shape="594.94,321.09,9.83 609.34,321.09,9.83" />
    </edge>
    <edge id=":C_14" function="internal">
        <lane id=":C_14_0" index="0" speed="8.00" length="4.07" shape="594.94,321.09,9.83 598.79,321.64,9.83 598.94,321.73,9.83" />
    </edge>
    <edge id=":C_15" function="internal">
        <lane id=":C_15_0" index="0" speed="3.65" length="1.44" shape="594.94,321.09,9.83 596.14,321.89,9.83" />
    </edge>
    <edge id=":C_22" function="internal">
        <lane id=":C_22_0" index="0" speed="8.00" length="10.13" shape="598.94,321.73,9.83 601.54,323.29,9.83 603.19,326.04,9.83 603.74,329.89,9.83" />
    </edge>
    <edge id=":C_23" function="internal">
        <lane id=":C_23_0" index="0" speed="3.65" length="3.23" shape="596.14,321.89,9.83 596.54,322.69,9.83 596.14,323.49,9.83 594.94,324.29,9.83" />
    </edge>
    <edge id=":CA_0" function="internal">
        <lane id=":CA_0_0" index="0" speed="3.65" length="4.67" shape="924.83,321.09,9.83 926.03,321.89,9.83 926.43,322.69,9.83 926.03,323.49,9.83 924.83,324.29,9.83" />
    </edge>
    <edge id=":CB_0" function="internal">
        <lane id=":CB_0_0" index="0" speed="3.65" length="4.67" shape="600.54,0.00,9.83 601.34,-1.20,9.83 602.14,-1.60,9.83 602.94,-1.20,9.83 603.74,0.00,9.83" />
    </edge>
    <edge id=":CC_0" function="internal">
        <lane id=":CC_0_0" index="0" speed="3.65" length="4.67" shape="279.45,324.29,9.83 278.25,323.49,9.83 277.85,322.69,9.83 278.25,321.89,9.83 279.45,321.09,9.83" />
    </edge>
    <edge id=":D_0" function="internal">
        <lane id=":D_0_0" index="0" speed="6.51" length="9.03" shape="296.27,655.78,-7.43 295.92,653.33,-7.43 294.87,651.58,-7.43 293.12,650.53,-7.43 290.67,650.18,-7.43" />
    </edge>
    <edge id=":D_1" function="internal">
        <lane id=":D_1_0" index="0" speed="13.41" length="20.80" shape="296.27,655.78,-7.43 296.27,634.98,-7.43" />
        <lane id=":D_1_1" index="1" speed="13.41" length="20.80" shape="299.47,655.78,-7.43 299.47,634.98,-7.43" />
    </edge>
    <edge id=":D_3" function="internal">
        <lane id=":D_3_0" index="0" speed="9.26" length="5.01" shape="299.47,655.78,-7.43 300.18,650.82,-7.43" />
    </edge>
    <edge id=":D_4" function="internal">
        <lane id=":D_4_0" index="0" speed="3.65" length="1.44" shape="299.47,655.78,-7.43 300.27,654.58,-7.43" />
    </edge>
    <edge id=":D_20" function="internal">
        <lane id=":D_20_0" index="0" speed="9.26" length="14.34" shape="300.18,650.82,-7.43 300.22,650.53,-7.43 302.47,646.78,-7.43 306.22,644.53,-7.43 311.47,643.78,-7.43" />
    </edge>
    <edge id=":D_21" function="internal">
        <lane id=":D_21_0" index="0" speed="3.65" length="3.23" shape="300.27,654.58,-7.43 301.07,654.18,-7.43 301.87,654.58,-7.43 302.67,655.78,-7.43" />
    </edge>
    <edge id=":D_5" function="internal">
        <lane id=":D_5_0" index="0" speed="6.51" length="9.03" shape="311.47,650.18,-7.43 309.02,650.53,-7.43 307.27,651.58,-7.43 306.22,653.33,-7.43 305.87,655.78,-7.43" />
    </edge>
    <edge id=":D_6" function="internal">
        <lane id=":D_6_0" index="0" speed="13.41" length="20.80" shape="311.47,650.18,-7.43 290.67,650.18,-7.43" />
        <lane id=":D_6_1" index="1" speed="13.41" length="20.80" shape="311.47,646.98,-7.43 290.67,646.98,-7.43" />
    </edge>
    <edge id=":D_8" function="internal">
        <lane id=":D_8_0" index="0" speed="9.26" length="5.01" shape="311.47,646.98,-7.43 306.51,646.27,-7.43" />
    </edge>
    <edge id=":D_9" function="internal">
        <lane id=":D_9_0" index="0" speed="3.65" length="1.44" shape="311.47,646.98,-7.43 310.27,646.18,-7.43" />
    </edge>
    <edge id=":D_22" function="internal">
        <lane id=":D_22_0" index="0" speed="9.26" length="14.34" shape="306.51,646.27,-7.43 306.22,646.23,-7.43 302.47,643.98,-7.43 300.22,640.23,-7.43 299.47,634.98,-7.43" />
    </edge>
    <edge id=":D_23" function="internal">
        <lane id=":D_23_0" index="0" speed="3.65" length="3.23" shape="310.27,646.18,-7.43 309.87,645.38,-7.43 310.27,644.58,-7.43 311.47,643.78,-7.43" />
    </edge>
    <edge id=":D_10" function="internal">
        <lane id=":D_10_0" index="0" speed="6.51" length="9.03" shape="305.87,634.98,-7.43 306.22,637.43,-7.43 307.27,639.18,-7.43 309.02,640.23,-7.43 311.47,640.58,-7.43" />
    </edge>
    <edge id=":D_11" function="internal">
        <lane id=":D_11_0" index="0" speed="13.41" length="20.80" shape="305.87,634.98,-7.43 305.87,655.78,-7.43" />
        <lane id=":D_11_1" index="1" speed="13.41" length="20.80" shape="302.67,634.98,-7.43 302.67,655.78,-7.43" />
    </edge>
    <edge id=":D_13" function="internal">
        <lane id=":D_13_0" index="0" speed="9.26" length="5.01" shape="302.67,634.98,-7.43 301.96,639.95,-7.43" />
    </edge>
    <edge id=":D_14" function="internal">
        <lane id=":D_14_0" index="0" speed="3.65" length="1.44" shape="302.67,634.98,-7.43 301.87,636.18,-7.43" />
    </edge>
    <edge id=":D_24" function="internal">
        <lane id=":D_24_0" index="0" speed="9.26" length="14.34" shape="301.96,639.95,-7.43 301.92,640.23,-7.43 299.67,643.98,-7.43 295.92,646.23,-7.43 290.67,646.98,-7.43" />
    </edge>
    <edge id=":D_25" function="internal">
        <lane id=":D_25_0" index="0" speed="3.65" length="3.23" shape="301.87,636.18,-7.43 301.07,636.58,-7.43 300.27,636.18,-7.43 299.47,634.98,-7.43" />
    </edge>
    <edge id=":D_15" function="internal">
        <lane id=":D_15_0" index="0" speed="6.51" length="9.03" shape="290.67,640.58,-7.43 293.12,640.23,-7.43 294.87,639.18,-7.43 295.92,637.43,-7.43 296.27,634.98,-7.43" />
    </edge>
    <edge id=":D_16" function="internal">
        <lane id=":D_16_0" index="0" speed="13.41" length="20.80" shape="290.67,640.58,-7.43 311.47,640.58,-7.43" />
        <lane id=":D_16_1" index="1" speed="13.41" length="20.80" shape="290.67,643.78,-7.43 311.47,643.78,-7.43" />
    </edge>
    <edge id=":D_18" function="internal">
        <lane id=":D_18_0" index="0" speed="9.26" length="5.01" shape="290.67,643.78,-7.43 295.63,644.49,-7.43" />
    </edge>
    <edge id=":D_19" function="internal">
        <lane id=":D_19_0" index="0" speed="3.65" length="1.44" shape="290.67,643.78,-7.43 291.87,644.58,-7.43" />
    </edge>
    <edge id=":D_26" function="internal">
        <lane id=":D_26_0" index="0" speed="9.26" length="14.34" shape="295.63,644.49,-7.43 295.92,644.53,-7.43 299.67,646.78,-7.43 301.92,650.53,-7.43 302.67,655.78,-7.43" />
    </edge>
    <edge id=":D_27" function="internal">
        <lane id=":D_27_0" index="0" speed="3.65" length="3.23" shape="291.87,644.58,-7.43 292.27,645.38,-7.43 291.87,646.18,-7.43 290.67,646.98,-7.43" />
    </edge>
    <edge id=":DA_0" function="internal">
        <lane id=":DA_0_0" index="0" speed="3.65" length="4.67" shape="299.47,344.31,-7.43 300.27,343.11,-7.43 301.07,342.71,-7.43 301.87,343.11,-7.43 302.67,344.31,-7.43" />
    </edge>
    <edge id=":DB_0" function="internal">
        <lane id=":DB_0_0" index="0" speed="3.65" length="4.67" shape="-0.00,646.98,-7.43 -1.20,646.18,-7.43 -1.60,645.38,-7.43 -1.20,644.58,-7.43 -0.00,643.78,-7.43" />
    </edge>
    <edge id=":DC_0" function="internal">
        <lane id=":DC_0_0" index="0" speed="3.65" length="4.67" shape="302.67,946.45,-7.43 301.87,947.65,-7.43 301.07,948.05,-7.43 300.27,947.65,-7.43 299.47,946.45,-7.43" />
    </edge>
    <edge id=":TL_0" function="internal">
        <lane id=":TL_0_0" index="0" speed="6.51" length="9.03" shape="600.54,655.78 600.19,653.33,-0.05 599.14,651.58,-0.09 597.39,650.53,-0.13 594.94,650.18,-0.18" />
    </edge>
    <edge id=":TL_1" function="internal">
        <lane id=":TL_1_0" index="0" speed="8.94" length="20.80" shape="600.54,655.78 600.54,634.98" />
    </edge>
    <edge id=":TL_2" function="internal">
        <lane id=":TL_2_0" index="0" speed="6.51" length="9.03" shape="609.34,650.18,0.18 606.89,650.53,0.13 605.14,651.58,0.09 604.09,653.33,0.05 603.74,655.78" />
    </edge>
    <edge id=":TL_3" function="internal">
        <lane id=":TL_3_0" index="0" speed="13.41" length="14.40" shape="609.34,650.18,0.18 594.94,650.18,-0.18" />
        <lane id=":TL_3_1" index="1" speed="13.41" length="14.40" shape="609.34,646.98,0.18 594.94,646.98,-0.18" />
    </edge>
    <edge id=":TL_5" function="internal">
        <lane id=":TL_5_0" index="0" speed="8.67" length="3.71" shape="609.34,646.98,0.18 605.69,646.27,0.14" />
    </edge>
    <edge id=":TL_12" function="internal">
        <lane id=":TL_12_0" index="0" speed="8.67" length="13.14" shape="605.69,646.27,0.14 605.49,646.23,0.14 602.74,643.98,0.10 601.09,640.23,0.06 600.54,634.98" />
    </edge>
    <edge id=":TL_6" function="internal">
        <lane id=":TL_6_0" index="0" speed="6.51" length="9.03" shape="603.74,634.98 604.09,637.43,0.05 605.14,639.18,0.09 606.89,640.23,0.13 609.34,640.58,0.18" />
    </edge>
    <edge id=":TL_7" function="internal">
        <lane id=":TL_7_0" index="0" speed="8.94" length="20.80" shape="603.74,634.98 603.74,655.78" />
    </edge>
    <edge id=":TL_8" function="internal">
        <lane id=":TL_8_0" index="0" speed="6.51" length="9.03" shape="594.94,640.58,-0.18 597.39,640.23,-0.13 599.14,639.18,-0.09 600.19,637.43,-0.05 600.54,634.98" />
    </edge>
    <edge id=":TL_9" function="internal">
        <lane id=":TL_9_0" index="0" speed="13.41" length="14.40" shape="594.94,640.58,-0.18 609.34,640.58,0.18" />
        <lane id=":TL_9_1" index="1" speed="13.41" length="14.40" shape="594.94,643.78,-0.18 609.34,643.78,0.18" />
    </edge>
    <edge id=":TL_11" function="internal">
        <lane id=":TL_11_0" index="0" speed="8.67" length="3.71" shape="594.94,643.78,-0.18 598.58,644.49,-0.14" />
    </edge>
    <edge id=":TL_13" function="internal">
        <lane id=":TL_13_0" index="0" speed="8.67" length="13.14" shape="598.58,644.49,-0.14 598.79,644.53,-0.14 601.54,646.78,-0.10 603.19,650.53,-0.06 603.74,655.78" />
    </edge>

    <edge id="A2AA" from="A" to="AA" priority="-1">
        <lane id="A2AA_0" index="0" speed="8.94" length="99.99" shape="594.94,754.17,-3.56 494.95,754.17,-3.56" />
    </edge>
    <edge id="A2AB" from="A" to="AB" priority="-1">
        <lane id="A2AB_0" index="0" speed="8.94" length="99.99" shape="603.74,759.77,-3.56 603.74,859.77,-3.56" />
    </edge>
    <edge id="A2AC" from="A" to="AC" priority="-1">
        <lane id="A2AC_0" index="0" speed="8.94" length="99.99" shape="609.34,750.97,-3.56 709.33,750.97,-3.56" />
    </edge>
    <edge id="A2TL" from="A" to="TL" priority="-1">
        <lane id="A2TL_0" index="0" speed="8.94" length="89.66" shape="600.54,745.37,-3.56 600.54,655.78" />
    </edge>
    <edge id="AA2A" from="AA" to="A" priority="-1">
        <lane id="AA2A_0" index="0" speed="8.94" length="99.99" shape="494.95,750.97,-3.56 594.94,750.97,-3.56" />
    </edge>
    <edge id="AB2A" from="AB" to="A" priority="-1">
        <lane id="AB2A_0" index="0" speed="8.94" length="99.99" shape="600.54,859.77,-3.56 600.54,759.77,-3.56" />
    </edge>
    <edge id="AC2A" from="AC" to="A" priority="-1">
        <lane id="AC2A_0" index="0" speed="8.94" length="99.99" shape="709.33,754.17,-3.56 609.34,754.17,-3.56" />
    </edge>
    <edge id="B2BA" from="B" to="BA" priority="-1">
        <lane id="B2BA_0" index="0" speed="13.41" length="298.57" shape="915.91,655.78,7.63 915.91,954.36,7.63" />
        <lane id="B2BA_1" index="1" speed="13.41" length="298.57" shape="912.71,655.78,7.63 912.71,954.36,7.63" />
    </edge>
    <edge id="B2BB" from="B" to="BB" priority="-1">
        <lane id="B2BB_0" index="0" speed="13.41" length="298.57" shape="921.51,640.58,7.63 1220.08,640.58,7.63" />
        <lane id="B2BB_1" index="1" speed="13.41" length="298.57" shape="921.51,643.78,7.63 1220.08,643.78,7.63" />
    </edge>
    <edge id="B2BC" from="B" to="BC" priority="-1">
        <lane id="B2BC_0" index="0" speed="13.41" length="298.57" shape="906.31,634.98,7.63 906.31,336.41,7.63" />
        <lane id="B2BC_1" index="1" speed="13.41" length="298.57" shape="909.51,634.98,7.63 909.51,336.41,7.63" />
    </edge>
    <edge id="B2TL" from="B" to="TL" priority="-1">
        <lane id="B2TL_0" index="0" speed="13.41" length="291.47" shape="900.71,650.18,7.63 609.34,650.18,0.18" />
        <lane id="B2TL_1" index="1" speed="13.41" length="291.47" shape="900.71,646.98,7.63 609.34,646.98,0.18" />
    </edge>
    <edge id="BA2B" from="BA" to="B" priority="-1">
        <lane id="BA2B_0" index="0" speed="13.41" length="298.57" shape="906.31,954.36,7.63 906.31,655.78,7.63" />
        <lane id="BA2B_1" index="1" speed="13.41" length="298.57" shape="909.51,954.36,7.63 909.51,655.78,7.63" />
    </edge>
    <edge id="BB2B" from="BB" to="B" priority="-1">
        <lane id="BB2B_0" index="0" speed="13.41" length="298.57" shape="1220.08,650.18,7.63 921.51,650.18,7.63" />
        <lane id="BB2B_1" index="1" speed="13.41" length="298.57" shape="1220.08,646.98,7.63 921.51,646.98,7.63" />
    </edge>
    <edge id="BC2B" from="BC" to="B" priority="-1">
        <lane id="BC2B_0" index="0" speed="13.41" length="298.57" shape="915.91,336.41,7.63 915.91,634.98,7.63" />
        <lane id="BC2B_1" index="1" speed="13.41" length="298.57" shape="912.71,336.41,7.63 912.71,634.98,7.63" />
    </edge>
    <edge id="C2CA" from="C" to="CA" priority="-1">
        <lane id="C2CA_0" index="0" speed="8.94" length="315.49" shape="609.34,321.09,9.83 924.83,321.09,9.83" />
    </edge>
    <edge id="C2CB" from="C" to="CB" priority="-1">
        <lane id="C2CB_0" index="0" speed="8.94" length="315.49" shape="600.54,315.49,9.83 600.54,0.00,9.83" />
    </edge>
    <edge id="C2CC" from="C" to="CC" priority="-1">
        <lane id="C2CC_0" index="0" speed="8.94" length="315.49" shape="594.94,324.29,9.83 279.45,324.29,9.83" />
    </edge>
    <edge id="C2TL" from="C" to="TL" priority="-1">
        <lane id="C2TL_0" index="0" speed="8.94" length="305.25" shape="603.74,329.89,9.83 603.74,634.98" />
    </edge>
    <edge id="CA2C" from="CA" to="C" priority="-1">
        <lane id="CA2C_0" index="0" speed="8.94" length="315.49" shape="924.83,324.29,9.83 609.34,324.29,9.83" />
    </edge>
    <edge id="CB2C" from="CB" to="C" priority="-1">
        <lane id="CB2C_0" index="0" speed="8.94" length="315.49" shape="603.74,0.00,9.83 603.74,315.49,9.83" />
    </edge>
    <edge id="CC2C" from="CC" to="C" priority="-1">
        <lane id="CC2C_0" index="0" speed="8.94" length="315.49" shape="279.45,321.09,9.83 594.94,321.09,9.83" />
    </edge>
    <edge id="D2DA" from="D" to="DA" priority="-1">
        <lane id="D2DA_0" index="0" speed="13.41" length="290.67" shape="296.27,634.98,-7.43 296.27,344.31,-7.43" />
        <lane id="D2DA_1" index="1" speed="13.41" length="290.67" shape="299.47,634.98,-7.43 299.47,344.31,-7.43" />
    </edge>