<net xmlns:xsi="http://www.w3.org/2001/XMLSchema-instance" version="1.9" junctionCornerDetail="5" limitTurnSpeed="5.50" xsi:noNamespaceSchemaLocation="http://sumo.dlr.de/xsd/net_file.xsd">

    <location netOffset="159.43,79.72" convBoundary="0.00,0.00,249.63,159.43" origBoundary="-159.43,-79.72,90.20,79.72" projParameter="!" />

    <edge id=":A_0" function="internal">
        <lane id=":A_0_0" index="0" speed="6.51" length="9.03" shape="164.23,119.32,0.17 164.58,121.77,0.15 165.63,123.52,0.14 167.38,124.57,0.12 169.83,124.92,0.11" />
        <lane id=":A_0_1" index="1" speed="7.33" length="11.73" shape="164.23,119.32,0.17 164.58,123.17,0.15 165.63,125.92,0.13 167.38,127.57,0.12 169.83,128.12,0.11" />
    </edge>
    <edge id=":A_2" function="internal">
        <lane id=":A_2_0" index="0" speed="31.29" length="20.80" shape="164.23,119.32,0.17 164.23,140.12,0.11" />
        <lane id=":A_2_1" index="1" speed="31.29" length="20.80" shape="161.03,119.32,0.17 161.03,140.12,0.11" />
    </edge>
    <edge id=":A_4" function="internal">
        <lane id=":A_4_0" index="0" speed="8.83" length="17.50" shape="161.03,119.32,0.17 160.68,125.97,0.17 159.63,130.72,0.17 157.88,133.57,0.17 155.43,134.52,0.17" />
        <lane id=":A_4_1" index="1" speed="8.10" length="14.57" shape="161.03,119.32,0.17 160.68,124.57,0.17 159.63,128.32,0.17 157.88,130.57,0.17 155.43,131.32,0.17" />
    </edge>
    <edge id=":B_0" function="internal">
        <lane id=":B_0_0" index="0" speed="6.51" length="9.03" shape="204.63,90.12,-0.07 204.28,87.67,-0.07 203.23,85.92,-0.07 201.48,84.87,-0.06 199.03,84.52,-0.06" />
    </edge>
    <edge id=":B_1" function="internal">
        <lane id=":B_1_0" index="0" speed="17.88" length="20.80" shape="204.63,90.12,-0.07 204.63,69.32,-0.07" />
        <lane id=":B_1_1" index="1" speed="17.88" length="20.80" shape="207.83,90.12,-0.07 207.83,69.32,-0.07" />
    </edge>
    <edge id=":B_3" function="internal">
        <lane id=":B_3_0" index="0" speed="9.26" length="5.01" shape="207.83,90.12,-0.07 208.54,85.15,-0.07" />
    </edge>
    <edge id=":B_4" function="internal">
        <lane id=":B_4_0" index="0" speed="3.65" length="1.44" shape="207.83,90.12,-0.07 208.63,88.92,-0.07" />
    </edge>
    <edge id=":B_20" function="internal">
        <lane id=":B_20_0" index="0" speed="9.26" length="14.34" shape="208.54,85.15,-0.07 208.58,84.87,-0.07 210.83,81.12,-0.07 214.58,78.87,-0.07 219.83,78.12,-0.07" />
    </edge>
    <edge id=":B_21" function="internal">
        <lane id=":B_21_0" index="0" speed="3.65" length="3.23" shape="208.63,88.92,-0.07 209.43,88.52,-0.07 210.23,88.92,-0.07 211.03,90.12,-0.07" />
    </edge>
    <edge id=":B_5" function="internal">
        <lane id=":B_5_0" index="0" speed="6.51" length="9.03" shape="219.83,84.52,-0.07 217.38,84.87,-0.07 215.63,85.92,-0.07 214.58,87.67,-0.07 214.23,90.12,-0.07" />
    </edge>
    <edge id=":B_6" function="internal">
        <lane id=":B_6_0" index="0" speed="17.88" length="20.80" shape="219.83,84.52,-0.07 199.03,84.52,-0.06" />
        <lane id=":B_6_1" index="1" speed="17.88" length="20.80" shape="219.83,81.32,-0.07 199.03,81.32,-0.06" />
    </edge>
    <edge id=":B_8" function="internal">
        <lane id=":B_8_0" index="0" speed="9.26" length="5.01" shape="219.83,81.32,-0.07 214.87,80.61,-0.07" />
    </edge>
    <edge id=":B_9" function="internal">
        <lane id=":B_9_0" index="0" speed="3.65" length="1.44" shape="219.83,81.32,-0.07 218.63,80.52,-0.07" />
    </edge>
    <edge id=":B_22" function="internal">
        <lane id=":B_22_0" index="0" speed="9.26" length="14.34" shape="214.87,80.61,-0.07 214.58,80.57,-0.07 210.83,78.32,-0.07 208.58,74.57,-0.07 207.83,69.32,-0.07" />
    </edge>
    <edge id=":B_23" function="internal">
        <lane id=":B_23_0" index="0" speed="3.65" length="3.23" shape="218.63,80.52,-0.07 218.23,79.72,-0.07 218.63,78.92,-0.07 219.83,78.12,-0.07" />
    </edge>
    <edge id=":B_10" function="internal">
        <lane id=":B_10_0" index="0" speed="6.51" length="9.03" shape="214.23,69.32,-0.07 214.58,71.77,-0.07 215.63,73.52,-0.07 217.38,74.57,-0.07 219.83,74.92,-0.07" />
    </edge>
    <edge id=":B_11" function="internal">
        <lane id=":B_11_0" index="0" speed="17.88" length="20.80" shape="214.23,69.32,-0.07 214.23,90.12,-0.07" />
        <lane id=":B_11_1" index="1" speed="17.88" length="20.80" shape="211.03,69.32,-0.07 211.03,90.12,-0.07" />
    </edge>
    <edge id=":B_13" function="internal">
        <lane id=":B_13_0" index="0" speed="9.26" length="5.01" shape="211.03,69.32,-0.07 210.32,74.28,-0.07" />
    </edge>
    <edge id=":B_14" function="internal">
        <lane id=":B_14_0" index="0" speed="3.65" length="1.44" shape="211.03,69.32,-0.07 210.23,70.52,-0.07" />
    </edge>
    <edge id=":B_24" function="internal">
        <lane id=":B_24_0" index="0" speed="9.26" length="14.34" shape="210.32,74.28,-0.07 210.28,74.57,-0.07 208.03,78.32,-0.07 204.28,80.57,-0.06 199.03,81.32,-0.06" />
    </edge>
    <edge id=":B_25" function="internal">
        <lane id=":B_25_0" index="0" speed="3.65" length="3.23" shape="210.23,70.52,-0.07 209.43,70.92,-0.07 208.63,70.52,-0.07 207.83,69.32,-0.07" />
    </edge>
    <edge id=":B_15" function="internal">
        <lane id=":B_15_0" index="0" speed="6.51" length="9.03" shape="199.03,74.92,-0.06 201.48,74.57,-0.06 203.23,73.52,-0.07 204.28,71.77,-0.07 204.63,69.32,-0.07" />
    </edge>
    <edge id=":B_16" function="internal">
        <lane id=":B_16_0" index="0" speed="17.88" length="20.80" shape="199.03,74.92,-0.06 219.83,74.92,-0.07" />
        <lane id=":B_16_1" index="1" speed="17.88" length="20.80" shape="199.03,78.12,-0.06 219.83,78.12,-0.07" />
    </edge>
    <edge id=":B_18" function="internal">
        <lane id=":B_18_0" index="0" speed="9.26" length="5.01" shape="199.03,78.12,-0.06 204.00,78.83,-0.06" />
    </edge>
    <edge id=":B_19" function="internal">
        <lane id=":B_19_0" index="0" speed="3.65" length="1.44" shape="199.03,78.12,-0.06 200.23,78.92,-0.06" />
    </edge>
    <edge id=":B_26" function="internal">
        <lane id=":B_26_0" index="0" speed="9.26" length="14.34" shape="204.00,78.83,-0.06 204.28,78.87,-0.06 208.03,81.12,-0.07 210.28,84.87,-0.07 211.03,90.12,-0.07" />
    </edge>
    <edge id=":B_27" function="internal">
        <lane id=":B_27_0" index="0" speed="3.65" length="3.23" shape="200.23,78.92,-0.06 200.63,79.72,-0.06 200.23,80.52,-0.06 199.03,81.32,-0.06" />
    </edge>
    <edge id=":BA_0" function="internal">
        <lane id=":BA_0_0" index="0" speed="3.65" length="4.67" shape="211.03,119.91,-0.06 210.23,121.11,-0.06 209.43,121.51,-0.06 208.63,121.11,-0.06 207.83,119.91,-0.06" />
    </edge>
    <edge id=":BB_0" function="internal">
        <lane id=":BB_0_0" index="0" speed="3.65" length="4.67" shape="249.63,78.12,-0.06 250.83,78.92,-0.06 251.23,79.72,-0.06 250.83,80.52,-0.06 249.63,81.32,-0.06" />
    </edge>
    <edge id=":BC_0" function="internal">
        <lane id=":BC_0_0" index="0" speed="3.65" length="4.67" shape="207.83,39.52,-0.06 208.63,38.32,-0.06 209.43,37.92,-0.06 210.23,38.32,-0.06 211.03,39.52,-0.06" />
    </edge>
    <edge id=":C_0" function="internal">
        <lane id=":C_0_0" index="0" speed="6.51" length="9.03" shape="169.83,34.52 167.38,34.87 165.63,35.92 164.58,37.67 164.23,40.12" />
        <lane id=":C_0_1" index="1" speed="8.00" length="14.19" shape="169.83,31.32 165.98,31.87 163.23,33.52 161.58,36.27 161.03,40.12" />
    </edge>
    <edge id=":C_2" function="internal">
        <lane id=":C_2_0" index="0" speed="31.29" length="20.80" shape="164.23,19.32 164.23,40.12" />
        <lane id=":C_2_1" index="1" speed="31.29" length="20.80" shape="161.03,19.32 161.03,40.12" />
    </edge>
    <edge id=":C_4" function="internal">
        <lane id=":C_4_0" index="0" speed="9.32" length="19.63" shape="155.43,24.92 159.28,25.87 162.03,28.72 163.68,33.47 164.23,40.12" />
        <lane id=":C_4_1" index="1" speed="8.10" length="14.57" shape="155.43,28.12 157.88,28.87 159.63,31.12 160.68,34.87 161.03,40.12" />
    </edge>
    <edge id=":D_0" function="internal">
        <lane id=":D_0_0" index="0" speed="6.51" length="9.03" shape="71.72,90.12,0.17 71.37,87.67,0.17 70.32,85.92,0.17 68.57,84.87,0.17 66.12,84.52,0.17" />
    </edge>
    <edge id=":D_1" function="internal">
        <lane id=":D_1_0" index="0" speed="17.88" length="24.27" shape="71.72,90.12,0.17 72.22,82.67,0.17 73.32,77.33,0.17 74.42,72.38,0.17 74.92,66.12,0.17" />
        <lane id=":D_1_1" index="1" speed="17.88" length="24.27" shape="74.92,90.12,0.17 75.42,82.67,0.17 76.52,77.33,0.17 77.62,72.38,0.17 78.12,66.12,0.17" />
    </edge>
    <edge id=":D_3" function="internal">
        <lane id=":D_3_0" index="0" speed="9.84" length="5.46" shape="78.12,90.12,0.17 79.07,84.87,0.16 79.14,84.76,0.16" />
    </edge>
    <edge id=":D_4" function="internal">
        <lane id=":D_4_0" index="0" speed="3.65" length="1.44" shape="78.12,90.12,0.17 78.92,88.92,0.17" />
    </edge>
    <edge id=":D_21" function="internal">
        <lane id=":D_21_0" index="0" speed="9.84" length="16.53" shape="79.14,84.76,0.16 81.92,81.12,0.16 86.67,78.87,0.15 93.32,78.12,0.14" />
    </edge>
    <edge id=":D_22" function="internal">
        <lane id=":D_22_0" index="0" speed="3.65" length="3.23" shape="78.92,88.92,0.17 79.72,88.52,0.17 80.52,88.92,0.17 81.32,90.12,0.17" />
    </edge>
    <edge id=":D_5" function="internal">
        <lane id=":D_5_0" index="0" speed="7.33" length="11.73" shape="93.32,84.52,0.14 89.47,84.87,0.15 86.72,85.92,0.16 85.07,87.67,0.16 84.52,90.12,0.17" />
    </edge>
    <edge id=":D_6" function="internal">
        <lane id=":D_6_0" index="0" speed="17.88" length="27.20" shape="93.32,84.52,0.14 66.12,84.52,0.17" />
        <lane id=":D_6_1" index="1" speed="17.88" length="27.20" shape="93.32,81.32,0.14 66.12,81.32,0.17" />
    </edge>
    <edge id=":D_8" function="internal">
        <lane id=":D_8_0" index="0" speed="10.36" length="5.01" shape="93.32,81.32,0.14 88.35,80.61,0.15" />
    </edge>
    <edge id=":D_9" function="internal">
        <lane id=":D_9_0" index="0" speed="3.65" length="1.44" shape="93.32,81.32,0.14 92.12,80.52,0.14" />
    </edge>
    <edge id=":D_23" function="internal">
        <lane id=":D_23_0" index="0" speed="10.36" length="19.50" shape="88.35,80.61,0.15 86.67,80.37,0.15 81.92,77.52,0.16 79.07,72.77,0.16 78.12,66.12,0.17" />
    </edge>
    <edge id=":D_24" function="internal">
        <lane id=":D_24_0" index="0" speed="3.65" length="3.23" shape="92.12,80.52,0.14 91.72,79.72,0.14 92.12,78.92,0.14 93.32,78.12,0.14" />
    </edge>
    <edge id=":D_10" function="internal">
        <lane id=":D_10_0" index="0" speed="6.51" length="9.03" shape="87.72,66.12,0.17 88.07,68.57,0.16 89.12,70.32,0.16 90.87,71.37,0.15 93.32,71.72,0.14" />
    </edge>
    <edge id=":D_11" function="internal">
        <lane id=":D_11_0" index="0" speed="17.88" length="24.27" shape="87.72,66.12,0.17 87.22,73.57,0.17 86.12,78.91,0.17 85.02,83.85,0.17 84.52,90.12,0.17" />
        <lane id=":D_11_1" index="1" speed="17.88" length="24.27" shape="84.52,66.12,0.17 84.02,73.57,0.17 82.92,78.91,0.17 81.82,83.85,0.17 81.32,90.12,0.17" />
    </edge>
    <edge id=":D_13" function="internal">
        <lane id=":D_13_0" index="0" speed="10.36" length="7.35" shape="81.32,66.12,0.17 80.37,72.77,0.17 80.04,73.31,0.17" />
    </edge>
    <edge id=":D_14" function="internal">
        <lane id=":D_14_0" index="0" speed="3.65" length="1.44" shape="81.32,66.12,0.17 80.52,67.32,0.17" />
    </edge>
    <edge id=":D_25" function="internal">
        <lane id=":D_25_0" index="0" speed="10.36" length="17.17" shape="80.04,73.31,0.17 77.52,77.52,0.17 72.77,80.37,0.17 66.12,81.32,0.17" />
    </edge>
    <edge id=":D_26" function="internal">
        <lane id=":D_26_0" index="0" speed="3.65" length="3.23" shape="80.52,67.32,0.17 79.72,67.72,0.17 78.92,67.32,0.17 78.12,66.12,0.17" />
    </edge>
    <edge id=":D_15" function="internal">
        <lane id=":D_15_0" index="0" speed="7.33" length="11.73" shape="66.12,71.72,0.17 69.97,71.37,0.17 72.72,70.32,0.17 74.37,68.57,0.17 74.92,66.12,0.17" />
    </edge>
    <edge id=":D_16" function="internal">
        <lane id=":D_16_0" index="0" speed="17.88" length="27.20" shape="66.12,71.72,0.17 93.32,71.72,0.14" />
        <lane id=":D_16_1" index="1" speed="17.88" length="27.20" shape="66.12,74.92,0.17 93.32,74.92,0.14" />
        <lane id=":D_16_2" index="2" speed="17.88" length="27.20" shape="66.12,78.12,0.17 93.32,78.12,0.14" />
    </edge>
    <edge id=":D_19" function="internal">
        <lane id=":D_19_0" index="0" speed="9.84" length="6.30" shape="66.12,78.12,0.17 72.37,78.82,0.17" />
    </edge>
    <edge id=":D_20" function="internal">
        <lane id=":D_20_0" index="0" speed="3.65" length="1.44" shape="66.12,78.12,0.17 67.32,78.92,0.17" />
    </edge>
    <edge id=":D_27" function="internal">
        <lane id=":D_27_0" index="0" speed="9.84" length="15.70" shape="72.37,78.82,0.17 72.77,78.87,0.17 77.52,81.12,0.17 80.37,84.87,0.17 81.32,90.12,0.17" />
    </edge>
    <edge id=":D_28" function="internal">
        <lane id=":D_28_0" index="0" speed="3.65" length="3.23" shape="67.32,78.92,0.17 67.72,79.72,0.17 67.32,80.52,0.17 66.12,81.32,0.17" />
    </edge>
    <edge id=":DA_0" function="internal">
        <lane id=":DA_0_0" index="0" speed="3.65" length="4.67" shape="78.12,0.00,0.17 78.92,-1.20,0.17 79.72,-1.60,0.17 80.52,-1.20,0.17 81.32,0.00,0.17" />
    </edge>
    <edge id=":DB_0" function="internal">
        <lane id=":DB_0_0" index="0" speed="3.65" length="4.67" shape="0.00,81.32,0.17 -1.20,80.52,0.17 -1.60,79.72,0.17 -1.20,78.92,0.17 0.00,78.12,0.17" />
    </edge>
    <edge id=":DC_0" function="internal">
        <lane id=":DC_0_0" index="0" speed="3.65" length="4.67" shape="81.32,159.43,0.17 80.52,160.63,0.17 79.72,161.03,0.17 78.92,160.63,0.17 78.12,159.43,0.17" />
    </edge>
    <edge id=":TL_0" function="internal">
        <lane id=":TL_0_0" index="0" speed="6.51" length="9.03" shape="169.83,84.52,-0.02 167.38,84.87,0.00 165.63,85.92,0.01 164.58,87.67,0.03 164.23,90.12,0.04" />
    </edge>
    <edge id=":TL_1" function="internal">
        <lane id=":TL_1_0" index="0" speed="17.88" length="14.40" shape="169.83,84.52,-0.02 155.43,84.52,0.01" />
        <lane id=":TL_1_1" index="1" speed="17.88" length="14.40" shape="169.83,81.32,-0.02 155.43,81.32,0.01" />
    </edge>
    <edge id=":TL_3" function="internal">
        <lane id=":TL_3_0" index="0" speed="31.29" length="24.00" shape="164.23,66.12 164.23,90.12,0.04" />
    </edge>
    <edge id=":TL_4" function="internal">
        <lane id=":TL_4_0" index="0" speed="9.94" length="22.48" shape="164.23,66.12 163.68,74.17,0.00 162.03,79.92,0.01 159.28,83.37,0.01 155.43,84.52,0.01" />
        <lane id=":TL_4_1" index="1" speed="8.83" length="17.50" shape="161.03,66.12 160.68,72.77,0.00 159.63,77.52,0.01 157.88,80.37,0.01 155.43,81.32,0.01" />
    </edge>
    <edge id=":TL_6" function="internal">
        <lane id=":TL_6_0" index="0" speed="17.88" length="14.86" shape="155.43,71.72,0.01 159.76,72.22,0.00 162.63,73.32,-0.00 165.51,74.42,-0.01 169.83,74.92,-0.02" />
        <lane id=":TL_6_1" index="1" speed="17.88" length="14.86" shape="155.43,74.92,0.01 159.76,75.42,0.00 162.63,76.52,-0.00 165.51,77.62,-0.01 169.83,78.12,-0.02" />
    </edge>
    <edge id=":TL_8" function="internal">
        <lane id=":TL_8_0" index="0" speed="8.10" length="2.37" shape="155.43,78.12,0.01 157.70,78.81,0.01" />
    </edge>
    <edge id=":TL_9" function="internal">
        <lane id=":TL_9_0" index="0" speed="8.10" length="12.20" shape="157.70,78.81,0.01 157.88,78.87,0.01 159.63,81.12,0.02 160.68,84.87,0.03 161.03,90.12,0.04" />
    </edge>

    <edge id="A2AA" from="A" to="AA" priority="-1">
        <lane id="A2AA_0" index="0" speed="31.29" length="10.72" shape="155.43,134.52,0.17 144.71,134.52,0.06" />
        <lane id="A2AA_1" index="1" speed="31.29" length="10.72" shape="155.43,131.32,0.17 144.71,131.32,0.06" />
    </edge>
    <edge id="A2AB" from="A" to="AB" priority="-1">
        <lane id="A2AB_0" index="0" speed="31.29" length="4.32" shape="164.23,140.12,0.11 164.23,144.43,0.06" />
        <lane id="A2AB_1" index="1" speed="31.29" length="4.32" shape="161.03,140.12,0.11 161.03,144.43,0.06" />
    </edge>
    <edge id="A2AC" from="A" to="AC" priority="-1">
        <lane id="A2AC_0" index="0" speed="31.29" length="4.32" shape="169.83,124.92,0.11 174.15,124.92,0.06" />
        <lane id="A2AC_1" index="1" speed="31.29" length="4.32" shape="169.83,128.12,0.11 174.15,128.12,0.06" />
    </edge>
    <edge id="B2BA" from="B" to="BA" priority="-1">
        <lane id="B2BA_0" index="0" speed="17.88" length="29.80" shape="214.23,90.12,-0.07 214.23,119.91,-0.06" />
        <lane id="B2BA_1" index="1" speed="17.88" length="29.80" shape="211.03,90.12,-0.07 211.03,119.91,-0.06" />
    </edge>
    <edge id="B2BB" from="B" to="BB" priority="-1">
        <lane id="B2BB_0" index="0" speed="17.88" length="29.80" shape="219.83,74.92,-0.07 249.63,74.92,-0.06" />
        <lane id="B2BB_1" index="1" speed="17.88" length="29.80" shape="219.83,78.12,-0.07 249.63,78.12,-0.06" />
    </edge>
    <edge id="B2BC" from="B" to="BC" priority="-1">
        <lane id="B2BC_0" index="0" speed="17.88" length="29.80" shape="204.63,69.32,-0.07 204.63,39.52,-0.06" />
        <lane id="B2BC_1" index="1" speed="17.88" length="29.80" shape="207.83,69.32,-0.07 207.83,39.52,-0.06" />
    </edge>
    <edge id="B2TL" from="B" to="TL" priority="-1">
        <lane id="B2TL_0" index="0" speed="17.88" length="29.20" shape="199.03,84.52,-0.06 169.83,84.52,-0.02" />
        <lane id="B2TL_1" index="1" speed="17.88" length="29.20" shape="199.03,81.32,-0.06 169.83,81.32,-0.02" />
    </edge>
    <edge id="BA2B" from="BA" to="B" priority="-1">
        <lane id="BA2B_0" index="0" speed="17.88" length="29.80" shape="204.63,119.91,-0.06 204.63,90.12,-0.07" />
        <lane id="BA2B_1" index="1" speed="17.88" length="29.80" shape="207.83,119.91,-0.06 207.83,90.12,-0.07" />
    </edge>
    <edge id="BB2B" from="BB" to="B" priority="-1">
        <lane id="BB2B_0" index="0" speed="17.88" length="29.80" shape="249.63,84.52,-0.06 219.83,84.52,-0.07" />
        <lane id="BB2B_1" index="1" speed="17.88" length="29.80" shape="249.63,81.32,-0.06 219.83,81.32,-0.07" />
    </edge>
    <edge id="BC2B" from="BC" to="B" priority="-1">
        <lane id="BC2B_0" index="0" speed="17.88" length="29.80" shape="214.23,39.52,-0.06 214.23,69.32,-0.07" />
        <lane id="BC2B_1" index="1" speed="17.88" length="29.80" shape="211.03,39.52,-0.06 211.03,69.32,-0.07" />
    </edge>
    <edge id="C2TL" from="C" to="TL" priority="-1">
        <lane id="C2TL_0" index="0" speed="31.29" length="26.00" shape="164.23,40.12 164.23,66.12" />
        <lane id="C2TL_1" index="1" speed="31.29" length="26.00" shape="161.03,40.12 161.03,66.12" />
    </edge>
    <edge id="CA2C" from="CA" to="C" priority="-1">
        <lane id="CA2C_0" index="0" speed="31.29" length="9.20" shape="179.03,34.52 169.83,34.52" />
        <lane id="CA2C_1" index="1" speed="31.29" length="9.20" shape="179.03,31.32 169.83,31.32" />
    </edge>
    <edge id="CB2C" from="CB" to="C" priority="-1">
        <lane id="CB2C_0" index="0" speed="31.29" length="9.20" shape="164.23,10.11 164.23,19.32" />
        <lane id="CB2C_1" index="1" speed="31.29" length="9.20" shape="161.03,10.11 161.03,19.32" />
    </edge>
    <edge id="CC2C" from="CC" to="C" priority="-1">
        <lane id="CC2C_0" index="0" speed="31.29" length="15.60" shape="139.83,24.92 155.43,24.92" />
        <lane id="CC2C_1" index="1" speed="31.29" length="15.60" shape="139.83,28.12 155.43,28.12" />
    </edge>
    <edge id="D2DA" from="D" to="DA" priority="-1">
        <lane id="D2DA_0" index="0" speed="17.88" length="66.12" shape="74.92,66.12,0.17 74.92,0.00,0.17" />
        <lane id="D2DA_1" index="1" speed="17.88" length="66.12" shape="78.12,66.12,0.17 78.12,0.00,0.17" />
    </edge>
    <edge id="D2DB" from="D" to="DB" priority="-1">
        <lane id="D2DB_0" index="0" speed="17.88" length="66.12" shape="66.12,84.52,0.17 0.00,84.52,0.17" />
        <lane id="D2DB_1" index="1" speed="17.88" length="66.12" shape="66.12,81.32,0.17 0.00,81.32,0.17" />
    </edge>
    <edge id="D2DC" from="D" to="DC" priority="-1">
        <lane id="D2DC_0" index="0" speed="17.88" length="69.32" shape="84.52,90.12,0.17 84.52,159.43,0.17" />
        <lane id="D2DC_1" index="1" speed="17.88" length="69.32" shape="81.32,90.12,0.17 81.32,159.43,0.17" />
    </edge>
    <edge id="D2TL" from="D" to="TL" priority="-1">
        <lane id="D2TL_0" index="0" speed="17.88" length="62.12" shape="93.32,71.72,0.14 155.43,71.72,0.01" />
        <lane id="D2TL_1" index="1" speed="17.88" length="62.12" shape="93.32,74.92,0.14 155.43,74.92,0.01" />
        <lane id="D2TL_2" index="2" speed="17.88" length="62.12" shape="93.32,78.12,0.14 155.43,78.12,0.01" />
    </edge>
    <edge id="DA2D" from="DA" to="D" priority="-1">
        <lane id="DA2D_0" index="0" speed="17.88" length="66.12" shape="87.72,0.00,0.17 87.72,66.12,0.17" />
        <lane id="DA2D_1" index="1" speed="17.88" length="66.12" shape="84.52,0.00,0.17 84.52,66.12,0.17" />
        <lane id="DA2D_2" index="2" speed="17.88" length="66.12" shape="81.32,0.00,0.17 81.32,66.12,0.17" />
    </edge>
    <edge id="DB2D" from="DB" to="D" priority="-1">
        <lane id="DB2D_0" index="0" speed="17.88" length="66.12" shape="0.00,71.72,0.17 66.12,71.72,0.17" />
        <lane id="DB2D_1" index="1" speed="17.88" length="66.12" shape="0.00,74.92,0.17 66.12,74.92,0.17" />
        <lane id="DB2D_2" index="2" speed="17.88" length="66.12" shape="0.00,78.12,0.17 66.12,78.12,0.17" />
    </edge>
    <edge id="DC2D" from="DC" to="D" priority="-1">
        <lane id="DC2D_0" index="0" speed="17.88" length="69.32" shape="71.72,159.43,0.17 71.72,90.12,0.17" />
        <lane id="DC2D_1" index="1" speed="17.88" length="69.32" shape="74.92,159.43,0.17 74.92,90.12,0.17" />
        <lane id="DC2D_2" index="2" speed="17.88" length="69.32" shape="78.12,159.43,0.17 78.12,90.12,0.17" />
    </edge>
    <edge id="TL2A" from="TL" to="A" priority="-1">
        <lane id="TL2A_0" index="0" speed="31.29" length="29.20" shape="164.23,90.12,0.04 164.23,119.32,0.17" />
        <lane id="TL2A_1" index="1" speed="31.29" length="29.20" shape="161.03,90.12,0.04 161.03,119.32,0.17" />
    </edge>
    <edge id="TL2B" from="TL" to="B" priority="-1">
        <lane id="TL2B_0" index="0" speed="17.88" length="29.20" shape="169.83,74.92,-0.02 199.03,74.92,-0.06" />
        <lane id="TL2B_1" index="1" speed="17.88" length="29.20" shape="169.83,78.12,-0.02 199.03,78.12,-0.06" />
    </edge>
    <edge id="TL2D" from="TL" to="D" priority="-1">
        <lane id="TL2D_0" index="0" speed="17.88" length="62.12" shape="155.43,84.52,0.01 93.32,84.52,0.14" />
        <lane id="TL2D_1" index="1" speed="17.88" length="62.12" shape="155.43,81.32,0.01 93.32,81.32,0.14" />
    </edge>

    <tlLogic id="A" type="static" programID="0" offset="0">
        <phase duration="78" state="GGGGGG" />
        <phase duration="7" state="yyyyyy" />
        <phase duration="5" state="rrrrrr" />
    </tlLogic>
    <tlLogic id="B" type="static" programID="0" offset="0">
        <phase duration="41" state="GGGggrrrrrGGGggrrrrr" />
        <phase duration="4" state="yyyyyrrrrryyyyyrrrrr" />
        <phase duration="41" state="rrrrrGGGggrrrrrGGGgg" />
        <phase duration="4" state="rrrrryyyyyrrrrryyyyy" />
    </tlLogic>
    <tlLogic id="BA" type="static" programID="0" offset="0">
        <phase duration="81" state="G" />
        <phase duration="4" state="y" />
        <phase duration="5" state="r" />
    </tlLogic>
    <tlLogic id="BB" type="static" programID="0" offset="0">
        <phase duration="81" state="G" />
        <phase duration="4" state="y" />
        <phase duration="5" state="r" />
    </tlLogic>
    <tlLogic id="BC" type="static" programID="0" offset="0">
        <phase duration="81" state="G" />
        <phase duration="4" state="y" />
        <phase duration="5" state="r" />
    </tlLogic>
    <tlLogic id="C" type="static" programID="0" offset="0">
        <phase duration="23" state="rrrrGG" />
        <phase duration="7" state="rrrryy" />
        <phase duration="23" state="GGrrrr" />
        <phase duration="7" state="yyrrrr" />
        <phase duration="23" state="rrGGrr" />
        <phase duration="7" state="rryyrr" />
    </tlLogic>
    <tlLogic id="D" type="static" programID="0" offset="0">
        <phase duration="36" state="GGGrrrrrrrGGGrrrrrrrr" />
        <phase duration="4" state="yyyrrrrrrryyyrrrrrrrr" />
        <phase duration="6" state="rrrGGrrrrrrrrGGrrrrrr" />
        <phase duration="4" state="rrryyrrrrrrrryyrrrrrr" />
        <phase duration="36" state="rrrrrGGGggrrrrrGGGGgg" />
        <phase duration="4" state="rrrrryyyyyrrrrryyyyyy" />
    </tlLogic>
    <tlLogic id="DA" type="static" programID="0" offset="0">
        <phase duration="81" state="G" />
        <phase duration="4" state="y" />
        <phase duration="5" state="r" />
    </tlLogic>
    <tlLogic id="DB" type="static" programID="0" offset="0">
        <phase duration="81" state="G" />
        <phase duration="4" state="y" />
        <phase duration="5" state="r" />
    </tlLogic>
    <tlLogic id="DC" type="static" programID="0" offset="0">
        <phase duration="81" state="G" />
        <phase duration="4" state="y" />
        <phase duration="5" state="r" />
    </tlLogic>
    <tlLogic id="TL" type="static" programID="0" offset="0">
        <phase duration="40" state="GGGrrrGGr" />
        <phase duration="7" state="yyyrrryyr" />
        <phase duration="15" state="rrrrrrGGG" />
        <phase duration="7" state="rrrrrryyy" />
        <phase duration="15" state="srrGGGrrr" />
        <phase duration="7" state="srryyyrrr" />
    </tlLogic>

    <junction id="A" type="traffic_light" x="159.43" y="129.72" z="0.21" incLanes="TL2A_0 TL2A_1" intLanes=":A_0_0 :A_0_1 :A_2_0 :A_2_1 :A_4_0 :A_4_1" shape="159.43,140.12,0.21 165.83,140.12,0.21 165.94,136.94,0.21 166.28,134.34,0.21 166.83,132.32,0.21 167.61,130.87,0.21 168.61,130.00,0.21 169.83,129.72,0.21 169.83,123.32,0.21 167.61,122.87,0.21 166.83,122.32,0.21 166.28,121.54,0.21 165.94,120.54,0.21 165.83,119.32,0.21 159.43,119.32,0.21 159.32,122.49,0.21 158.99,125.09,0.21 158.43,127.12,0.21 157.65,128.56,0.21 156.65,129.43,0.21 155.43,129.72,0.21 155.43,136.12,0.21 157.65,136.56,0.21 158.43,137.12,0.21 158.99,137.89,0.21 159.32,138.89,0.21">
        <request index="0" response="000000" foes="000000" cont="0" />
        <request index="1" response="000000" foes="000000" cont="0" />
        <request index="2" response="000000" foes="000000" cont="0" />
        <request index="3" response="000000" foes="000000" cont="0" />
        <request index="4" response="000000" foes="000000" cont="0" />
        <request index="5" response="000000" foes="000000" cont="0" />
    </junction>
    <junction id="AA" type="dead_end" x="144.71" y="129.72" z="0.06" incLanes="A2AA_0 A2AA_1" intLanes="" shape="144.71,136.12,0.06 144.71,129.72,0.06" />
    <junction id="AB" type="dead_end" x="159.43" y="144.43" z="0.06" incLanes="A2AB_0 A2AB_1" intLanes="" shape="165.83,144.43,0.06 159.43,144.43,0.06" />
    <junction id="AC" type="dead_end" x="174.15" y="129.72" z="0.06" incLanes="A2AC_0 A2AC_1" intLanes="" shape="174.15,123.32,0.06 174.15,129.72,0.06" />
    <junction id="B" type="traffic_light" x="209.43" y="79.72" z="-0.08" incLanes="BA2B_0 BA2B_1 BB2B_0 BB2B_1 BC2B_0 BC2B_1 TL2B_0 TL2B_1" intLanes=":B_0_0 :B_1_0 :B_1_1 :B_20_0 :B_21_0 :B_5_0 :B_6_0 :B_6_1 :B_22_0 :B_23_0 :B_10_0 :B_11_0 :B_11_1 :B_24_0 :B_25_0 :B_15_0 :B_16_0 :B_16_1 :B_26_0 :B_27_0" shape="203.03,90.12,-0.08 215.83,90.12,-0.08 216.28,87.89,-0.08 216.83,87.12,-0.08 217.61,86.56,-0.08 218.61,86.23,-0.08 219.83,86.12,-0.08 219.83,73.32,-0.08 217.61,72.87,-0.08 216.83,72.32,-0.08 216.28,71.54,-0.08 215.94,70.54,-0.08 215.83,69.32,-0.08 203.03,69.32,-0.08 202.59,71.54,-0.08 202.03,72.32,-0.08 201.25,72.87,-0.08 200.25,73.20,-0.08 199.03,73.32,-0.08 199.03,86.12,-0.08 201.25,86.56,-0.08 202.03,87.12,-0.08 202.59,87.89,-0.08 202.92,88.89,-0.08">
        <request index="0" response="00000000000000000000" foes="00000000000011000000" cont="0" />
        <request index="1" response="01000000000100000000" foes="01111110000111000000" cont="0" />
        <request index="2" response="01000000000100000000" foes="01111110000111000000" cont="0" />
        <request index="3" response="01000001100100000000" foes="01110001101111000000" cont="1" />
        <request index="4" response="01000001100000000000" foes="01000001100000000000" cont="1" />
        <request index="5" response="00000001100000000000" foes="00000001100000000000" cont="0" />
        <request index="6" response="00000011100000001111" foes="11000011100000001111" cont="0" />
        <request index="7" response="00000011100000001111" foes="11000011100000001111" cont="0" />
        <request index="8" response="00110011100000001110" foes="00110111100000001110" cont="1" />
        <request index="9" response="00110000000000001000" foes="00110000000000001000" cont="1" />
        <request index="10" response="00000000000000000000" foes="00110000000000000000" cont="0" />
        <request index="11" response="01000000000100000000" foes="01110000000111111000" cont="0" />
        <request index="12" response="01000000000100000000" foes="01110000000111111000" cont="0" />
        <request index="13" response="01000000000100000110" foes="11110000000111000110" cont="1" />
        <request index="14" response="00000000000100000110" foes="00000000000100000110" cont="1" />
        <request index="15" response="00000000000000000110" foes="00000000000000000110" cont="0" />
        <request index="16" response="00000011110000001110" foes="00000011111100001110" cont="0" />