<net xmlns:xsi="http://www.w3.org/2001/XMLSchema-instance" version="1.9" junctionCornerDetail="5" limitTurnSpeed="5.50" xsi:noNamespaceSchemaLocation="http://sumo.dlr.de/xsd/net_file.xsd">

    <location netOffset="626.26,640.87" convBoundary="0.00,0.00,1908.00,1690.70" origBoundary="-626.26,-640.87,1281.74,1049.84" projParameter="!" />

    <edge id=":A_0" function="internal">
        <lane id=":A_0_0" index="0" speed="6.51" length="9.03" shape="624.66,1172.99 624.31,1170.54 623.26,1168.79 621.51,1167.74 619.06,1167.39" />
    </edge>
    <edge id=":A_1" function="internal">
        <lane id=":A_1_0" index="0" speed="17.88" length="14.40" shape="624.66,1172.99 624.66,1158.59" />
    </edge>
    <edge id=":A_2" function="internal">
        <lane id=":A_2_0" index="0" speed="8.00" length="4.07" shape="624.66,1172.99 625.21,1169.14 625.31,1168.98" />
    </edge>
    <edge id=":A_3" function="internal">
        <lane id=":A_3_0" index="0" speed="3.65" length="1.44" shape="624.66,1172.99 625.46,1171.79" />
    </edge>
    <edge id=":A_16" function="internal">
        <lane id=":A_16_0" index="0" speed="8.00" length="10.13" shape="625.31,1168.98 626.86,1166.39 629.61,1164.74 633.46,1164.19" />
    </edge>
    <edge id=":A_17" function="internal">
        <lane id=":A_17_0" index="0" speed="3.65" length="3.23" shape="625.46,1171.79 626.26,1171.39 627.06,1171.79 627.86,1172.99" />
    </edge>
    <edge id=":A_4" function="internal">
        <lane id=":A_4_0" index="0" speed="6.51" length="9.03" shape="633.46,1167.39 631.01,1167.74 629.26,1168.79 628.21,1170.54 627.86,1172.99" />
    </edge>
    <edge id=":A_5" function="internal">
        <lane id=":A_5_0" index="0" speed="17.88" length="14.40" shape="633.46,1167.39 619.06,1167.39" />
    </edge>
    <edge id=":A_6" function="internal">
        <lane id=":A_6_0" index="0" speed="8.00" length="4.07" shape="633.46,1167.39 629.61,1166.84 629.46,1166.74" />
    </edge>
    <edge id=":A_7" function="internal">
        <lane id=":A_7_0" index="0" speed="3.65" length="1.44" shape="633.46,1167.39 632.26,1166.59" />
    </edge>
    <edge id=":A_18" function="internal">
        <lane id=":A_18_0" index="0" speed="8.00" length="10.13" shape="629.46,1166.74 626.86,1165.19 625.21,1162.44 624.66,1158.59" />
    </edge>
    <edge id=":A_19" function="internal">
        <lane id=":A_19_0" index="0" speed="3.65" length="3.23" shape="632.26,1166.59 631.86,1165.79 632.26,1164.99 633.46,1164.19" />
    </edge>
    <edge id=":A_8" function="internal">
        <lane id=":A_8_0" index="0" speed="6.51" length="9.03" shape="627.86,1158.59 628.21,1161.04 629.26,1162.79 631.01,1163.84 633.46,1164.19" />
    </edge>
    <edge id=":A_9" function="internal">
        <lane id=":A_9_0" index="0" speed="17.88" length="14.40" shape="627.86,1158.59 627.86,1172.99" />
    </edge>
    <edge id=":A_10" function="internal">
        <lane id=":A_10_0" index="0" speed="8.00" length="4.07" shape="627.86,1158.59 627.31,1162.44 627.22,1162.59" />
    </edge>
    <edge id=":A_11" function="internal">
        <lane id=":A_11_0" index="0" speed="3.65" length="1.44" shape="627.86,1158.59 627.06,1159.79" />
    </edge>
    <edge id=":A_20" function="internal">
        <lane id=":A_20_0" index="0" speed="8.00" length="10.13" shape="627.22,1162.59 625.66,1165.19 622.91,1166.84 619.06,1167.39" />
    </edge>
    <edge id=":A_21" function="internal">
        <lane id=":A_21_0" index="0" speed="3.65" length="3.23" shape="627.06,1159.79 626.26,1160.19 625.46,1159.79 624.66,1158.59" />
    </edge>
    <edge id=":A_12" function="internal">
        <lane id=":A_12_0" index="0" speed="6.51" length="9.03" shape="619.06,1164.19 621.51,1163.84 623.26,1162.79 624.31,1161.04 624.66,1158.59" />
    </edge>
    <edge id=":A_13" function="internal">
        <lane id=":A_13_0" index="0" speed="17.88" length="14.40" shape="619.06,1164.19 633.46,1164.19" />
    </edge>
    <edge id=":A_14" function="internal">
        <lane id=":A_14_0" index="0" speed="8.00" length="4.07" shape="619.06,1164.19 622.91,1164.74 623.07,1164.83" />
    </edge>
    <edge id=":A_15" function="internal">
        <lane id=":A_15_0" index="0" speed="3.65" length="1.44" shape="619.06,1164.19 620.26,1164.99" />
    </edge>
    <edge id=":A_22" function="internal">
        <lane id=":A_22_0" index="0" speed="8.00" length="10.13" shape="623.07,1164.83 625.66,1166.39 627.31,1169.14 627.86,1172.99" />
    </edge>
    <edge id=":A_23" function="internal">
        <lane id=":A_23_0" index="0" speed="3.65" length="3.23" shape="620.26,1164.99 620.66,1165.79 620.26,1166.59 619.06,1167.39" />
    </edge>
    <edge id=":AA_0" function="internal">
        <lane id=":AA_0_0" index="0" speed="3.65" length="4.67" shape="101.35,1167.39 100.15,1166.59 99.75,1165.79 100.15,1164.99 101.35,1164.19" />
    </edge>
    <edge id=":AB_0" function="internal">
        <lane id=":AB_0_0" index="0" speed="3.65" length="4.67" shape="627.86,1690.70 627.06,1691.90 626.26,1692.30 625.46,1691.90 624.66,1690.70" />
    </edge>
    <edge id=":AC_0" function="internal">
        <lane id=":AC_0_0" index="0" speed="3.65" length="4.67" shape="1151.18,1164.19 1152.38,1164.99 1152.78,1165.79 1152.38,1166.59 1151.18,1167.39" />
    </edge>
    <edge id=":A_intern_0" function="internal">
        <lane id=":A_intern_0_0" index="0" speed="17.88" length="8.40" shape="624.66,694.87 624.16,692.41 623.06,690.87 621.96,689.33 621.46,686.87" />
        <lane id=":A_intern_0_1" index="1" speed="17.88" length="8.40" shape="624.66,694.87 624.66,686.87" />
    </edge>
    <edge id=":B_0" function="internal">
        <lane id=":B_0_0" index="0" speed="6.51" length="9.03" shape="1262.33,651.27 1261.98,648.82 1260.93,647.07 1259.18,646.02 1256.73,645.67" />
    </edge>
    <edge id=":B_1" function="internal">
        <lane id=":B_1_0" index="0" speed="17.88" length="20.80" shape="1262.33,651.27 1262.33,630.47" />
        <lane id=":B_1_1" index="1" speed="17.88" length="20.80" shape="1265.53,651.27 1265.53,630.47" />
    </edge>
    <edge id=":B_3" function="internal">
        <lane id=":B_3_0" index="0" speed="9.26" length="5.01" shape="1265.53,651.27 1266.24,646.30" />
    </edge>
    <edge id=":B_4" function="internal">
        <lane id=":B_4_0" index="0" speed="3.65" length="1.44" shape="1265.53,651.27 1266.33,650.07" />
    </edge>
    <edge id=":B_20" function="internal">
        <lane id=":B_20_0" index="0" speed="9.26" length="14.34" shape="1266.24,646.30 1266.28,646.02 1268.53,642.27 1272.28,640.02 1277.53,639.27" />
    </edge>
    <edge id=":B_21" function="internal">
        <lane id=":B_21_0" index="0" speed="3.65" length="3.23" shape="1266.33,650.07 1267.13,649.67 1267.93,650.07 1268.73,651.27" />
    </edge>
    <edge id=":B_5" function="internal">
        <lane id=":B_5_0" index="0" speed="6.51" length="9.03" shape="1277.53,645.67 1275.08,646.02 1273.33,647.07 1272.28,648.82 1271.93,651.27" />
    </edge>
    <edge id=":B_6" function="internal">
        <lane id=":B_6_0" index="0" speed="17.88" length="20.80" shape="1277.53,645.67 1256.73,645.67" />
        <lane id=":B_6_1" index="1" speed="17.88" length="20.80" shape="1277.53,642.47 1256.73,642.47" />
    </edge>
    <edge id=":B_8" function="internal">
        <lane id=":B_8_0" index="0" speed="9.26" length="5.01" shape="1277.53,642.47 1272.57,641.76" />
    </edge>
    <edge id=":B_9" function="internal">
        <lane id=":B_9_0" index="0" speed="3.65" length="1.44" shape="1277.53,642.47 1276.33,641.67" />
    </edge>
    <edge id=":B_22" function="internal">
        <lane id=":B_22_0" index="0" speed="9.26" length="14.34" shape="1272.57,641.76 1272.28,641.72 1268.53,639.47 1266.28,635.72 1265.53,630.47" />
    </edge>
    <edge id=":B_23" function="internal">
        <lane id=":B_23_0" index="0" speed="3.65" length="3.23" shape="1276.33,641.67 1275.93,640.87 1276.33,640.07 1277.53,639.27" />
    </edge>
    <edge id=":B_10" function="internal">
        <lane id=":B_10_0" index="0" speed="6.51" length="9.03" shape="1271.93,630.47 1272.28,632.92 1273.33,634.67 1275.08,635.72 1277.53,636.07" />
    </edge>
    <edge id=":B_11" function="internal">
        <lane id=":B_11_0" index="0" speed="17.88" length="20.80" shape="1271.93,630.47 1271.93,651.27" />
        <lane id=":B_11_1" index="1" speed="17.88" length="20.80" shape="1268.73,630.47 1268.73,651.27" />
    </edge>
    <edge id=":B_13" function="internal">
        <lane id=":B_13_0" index="0" speed="9.26" length="5.01" shape="1268.73,630.47 1268.02,635.43" />
    </edge>
    <edge id=":B_14" function="internal">
        <lane id=":B_14_0" index="0" speed="3.65" length="1.44" shape="1268.73,630.47 1267.93,631.67" />
    </edge>
    <edge id=":B_24" function="internal">
        <lane id=":B_24_0" index="0" speed="9.26" length="14.34" shape="1268.02,635.43 1267.98,635.72 1265.73,639.47 1261.98,641.72 1256.73,642.47" />
    </edge>
    <edge id=":B_25" function="internal">
        <lane id=":B_25_0" index="0" speed="3.65" length="3.23" shape="1267.93,631.67 1267.13,632.07 1266.33,631.67 1265.53,630.47" />
    </edge>
    <edge id=":B_15" function="internal">
        <lane id=":B_15_0" index="0" speed="6.51" length="9.03" shape="1256.73,636.07 1259.18,635.72 1260.93,634.67 1261.98,632.92 1262.33,630.47" />
    </edge>
    <edge id=":B_16" function="internal">
        <lane id=":B_16_0" index="0" speed="17.88" length="20.80" shape="1256.73,636.07 1277.53,636.07" />
        <lane id=":B_16_1" index="1" speed="17.88" length="20.80" shape="1256.73,639.27 1277.53,639.27" />
    </edge>
    <edge id=":B_18" function="internal">
        <lane id=":B_18_0" index="0" speed="9.26" length="5.01" shape="1256.73,639.27 1261.70,639.98" />
    </edge>
    <edge id=":B_19" function="internal">
        <lane id=":B_19_0" index="0" speed="3.65" length="1.44" shape="1256.73,639.27 1257.93,640.07" />
    </edge>
    <edge id=":B_26" function="internal">
        <lane id=":B_26_0" index="0" speed="9.26" length="14.34" shape="1261.70,639.98 1261.98,640.02 1265.73,642.27 1267.98,646.02 1268.73,651.27" />
    </edge>
    <edge id=":B_27" function="internal">
        <lane id=":B_27_0" index="0" speed="3.65" length="3.23" shape="1257.93,640.07 1258.33,640.87 1257.93,641.67 1256.73,642.47" />
    </edge>
    <edge id=":BA_0" function="internal">
        <lane id=":BA_0_0" index="0" speed="3.65" length="4.67" shape="1268.73,1281.74 1267.93,1282.94 1267.13,1283.34 1266.33,1282.94 1265.53,1281.74" />
    </edge>
    <edge id=":BB_0" function="internal">
        <lane id=":BB_0_0" index="0" speed="3.65" length="4.67" shape="1908.00,639.27 1909.20,640.07 1909.60,640.87 1909.20,641.67 1908.00,642.47" />
    </edge>
    <edge id=":BC_0" function="internal">
        <lane id=":BC_0_0" index="0" speed="3.65" length="4.67" shape="1265.53,0.00 1266.33,-1.20 1267.13,-1.60 1267.93,-1.20 1268.73,0.00" />
    </edge>
    <edge id=":C_0" function="internal">
        <lane id=":C_0_0" index="0" speed="6.51" length="9.03" shape="624.66,530.66 624.31,528.21 623.26,526.46 621.51,525.41 619.06,525.06" />
    </edge>
    <edge id=":C_1" function="internal">
        <lane id=":C_1_0" index="0" speed="17.88" length="14.40" shape="624.66,530.66 624.66,516.26" />
    </edge>
    <edge id=":C_2" function="internal">
        <lane id=":C_2_0" index="0" speed="8.00" length="4.07" shape="624.66,530.66 625.21,526.81 625.31,526.66" />
    </edge>
    <edge id=":C_3" function="internal">
        <lane id=":C_3_0" index="0" speed="3.65" length="1.44" shape="624.66,530.66 625.46,529.46" />
    </edge>
    <edge id=":C_16" function="internal">
        <lane id=":C_16_0" index="0" speed="8.00" length="10.13" shape="625.31,526.66 626.86,524.06 629.61,522.41 633.46,521.86" />
    </edge>
    <edge id=":C_17" function="internal">
        <lane id=":C_17_0" index="0" speed="3.65" length="3.23" shape="625.46,529.46 626.26,529.06 627.06,529.46 627.86,530.66" />
    </edge>
    <edge id=":C_4" function="internal">
        <lane id=":C_4_0" index="0" speed="6.51" length="9.03" shape="633.46,525.06 631.01,525.41 629.26,526.46 628.21,528.21 627.86,530.66" />
    </edge>
    <edge id=":C_5" function="internal">
        <lane id=":C_5_0" index="0" speed="17.88" length="14.40" shape="633.46,525.06 619.06,525.06" />
    </edge>
    <edge id=":C_6" function="internal">
        <lane id=":C_6_0" index="0" speed="8.00" length="4.07" shape="633.46,525.06 629.61,524.51 629.46,524.42" />
    </edge>
    <edge id=":C_7" function="internal">
        <lane id=":C_7_0" index="0" speed="3.65" length="1.44" shape="633.46,525.06 632.26,524.26" />
    </edge>
    <edge id=":C_18" function="internal">
        <lane id=":C_18_0" index="0" speed="8.00" length="10.13" shape="629.46,524.42 626.86,522.86 625.21,520.11 624.66,516.26" />
    </edge>
    <edge id=":C_19" function="internal">
        <lane id=":C_19_0" index="0" speed="3.65" length="3.23" shape="632.26,524.26 631.86,523.46 632.26,522.66 633.46,521.86" />
    </edge>
    <edge id=":C_8" function="internal">
        <lane id=":C_8_0" index="0" speed="6.51" length="9.03" shape="627.86,516.26 628.21,518.71 629.26,520.46 631.01,521.51 633.46,521.86" />
    </edge>
    <edge id=":C_9" function="internal">
        <lane id=":C_9_0" index="0" speed="17.88" length="14.40" shape="627.86,516.26 627.86,530.66" />
    </edge>
    <edge id=":C_10" function="internal">
        <lane id=":C_10_0" index="0" speed="8.00" length="4.07" shape="627.86,516.26 627.31,520.11 627.22,520.26" />
    </edge>
    <edge id=":C_11" function="internal">
        <lane id=":C_11_0" index="0" speed="3.65" length="1.44" shape="627.86,516.26 627.06,517.46" />
    </edge>
    <edge id=":C_20" function="internal">
        <lane id=":C_20_0" index="0" speed="8.00" length="10.13" shape="627.22,520.26 625.66,522.86 622.91,524.51 619.06,525.06" />
    </edge>
    <edge id=":C_21" function="internal">
        <lane id=":C_21_0" index="0" speed="3.65" length="3.23" shape="627.06,517.46 626.26,517.86 625.46,517.46 624.66,516.26" />
    </edge>
    <edge id=":C_12" function="internal">
        <lane id=":C_12_0" index="0" speed="6.51" length="9.03" shape="619.06,521.86 621.51,521.51 623.26,520.46 624.31,518.71 624.66,516.26" />
    </edge>
    <edge id=":C_13" function="internal">
        <lane id=":C_13_0" index="0" speed="17.88" length="14.40" shape="619.06,521.86 633.46,521.86" />
    </edge>
    <edge id=":C_14" function="internal">
        <lane id=":C_14_0" index="0" speed="8.00" length="4.07" shape="619.06,521.86 622.91,522.41 623.07,522.50" />
    </edge>
    <edge id=":C_15" function="internal">
        <lane id=":C_15_0" index="0" speed="3.65" length="1.44" shape="619.06,521.86 620.26,522.66" />
    </edge>
    <edge id=":C_22" function="internal">
        <lane id=":C_22_0" index="0" speed="8.00" length="10.13" shape="623.07,522.50 625.66,524.06 627.31,526.81 627.86,530.66" />
    </edge>
    <edge id=":C_23" function="internal">
        <lane id=":C_23_0" index="0" speed="3.65" length="3.23" shape="620.26,522.66 620.66,523.46 620.26,524.26 619.06,525.06" />
    </edge>
    <edge id=":CA_0" function="internal">
        <lane id=":CA_0_0" index="0" speed="3.65" length="4.67" shape="743.67,521.86 744.87,522.66 745.27,523.46 744.87,524.26 743.67,525.06" />
    </edge>
    <edge id=":CB_0" function="internal">
        <lane id=":CB_0_0" index="0" speed="3.65" length="4.67" shape="624.66,406.05 625.46,404.85 626.26,404.45 627.06,404.85 627.86,406.05" />
    </edge>
    <edge id=":CC_0" function="internal">
        <lane id=":CC_0_0" index="0" speed="3.65" length="4.67" shape="508.86,525.06 507.66,524.26 507.26,523.46 507.66,522.66 508.86,521.86" />
    </edge>
    <edge id=":C_intern_0" function="internal">
        <lane id=":C_intern_0_0" index="0" speed="17.88" length="8.40" shape="627.86,586.87 628.36,589.33 629.46,590.87 630.56,592.41 631.06,594.87" />
        <lane id=":C_intern_0_1" index="1" speed="17.88" length="8.40" shape="627.86,586.87 627.86,594.87" />
    </edge>
    <edge id=":D_0" function="internal">
        <lane id=":D_0_0" index="0" speed="6.51" length="9.03" shape="308.33,651.27 307.98,648.82 306.93,647.07 305.18,646.02 302.73,645.67" />
    </edge>
    <edge id=":D_1" function="internal">
        <lane id=":D_1_0" index="0" speed="17.88" length="20.80" shape="308.33,651.27 308.33,630.47" />
        <lane id=":D_1_1" index="1" speed="17.88" length="20.80" shape="311.53,651.27 311.53,630.47" />
    </edge>
    <edge id=":D_3" function="internal">
        <lane id=":D_3_0" index="0" speed="9.26" length="5.01" shape="311.53,651.27 312.24,646.30" />
    </edge>
    <edge id=":D_4" function="internal">
        <lane id=":D_4_0" index="0" speed="3.65" length="1.44" shape="311.53,651.27 312.33,650.07" />
    </edge>
    <edge id=":D_20" function="internal">
        <lane id=":D_20_0" index="0" speed="9.26" length="14.34" shape="312.24,646.30 312.28,646.02 314.53,642.27 318.28,640.02 323.53,639.27" />
    </edge>
    <edge id=":D_21" function="internal">
        <lane id=":D_21_0" index="0" speed="3.65" length="3.23" shape="312.33,650.07 313.13,649.67 313.93,650.07 314.73,651.27" />
    </edge>
    <edge id=":D_5" function="internal">
        <lane id=":D_5_0" index="0" speed="6.51" length="9.03" shape="323.53,645.67 321.08,646.02 319.33,647.07 318.28,648.82 317.93,651.27" />
    </edge>
    <edge id=":D_6" function="internal">
        <lane id=":D_6_0" index="0" speed="17.88" length="20.80" shape="323.53,645.67 302.73,645.67" />
        <lane id=":D_6_1" index="1" speed="17.88" length="20.80" shape="323.53,642.47 302.73,642.47" />
    </edge>
    <edge id=":D_8" function="internal">
        <lane id=":D_8_0" index="0" speed="9.26" length="5.01" shape="323.53,642.47 318.57,641.76" />
    </edge>
    <edge id=":D_9" function="internal">
        <lane id=":D_9_0" index="0" speed="3.65" length="1.44" shape="323.53,642.47 322.33,641.67" />
    </edge>
    <edge id=":D_22" function="internal">
        <lane id=":D_22_0" index="0" speed="9.26" length="14.34" shape="318.57,641.76 318.28,641.72 314.53,639.47 312.28,635.72 311.53,630.47" />
    </edge>
    <edge id=":D_23" function="internal">
        <lane id=":D_23_0" index="0" speed="3.65" length="3.23" shape="322.33,641.67 321.93,640.87 322.33,640.07 323.53,639.27" />
    </edge>
    <edge id=":D_10" function="internal">
        <lane id=":D_10_0" index="0" speed="6.51" length="9.03" shape="317.93,630.47 318.28,632.92 319.33,634.67 321.08,635.72 323.53,636.07" />
    </edge>
    <edge id=":D_11" function="internal">
        <lane id=":D_11_0" index="0" speed="17.88" length="20.80" shape="317.93,630.47 317.93,651.27" />
        <lane id=":D_11_1" index="1" speed="17.88" length="20.80" shape="314.73,630.47 314.73,651.27" />
    </edge>
    <edge id=":D_13" function="internal">
        <lane id=":D_13_0" index="0" speed="9.26" length="5.01" shape="314.73,630.47 314.02,635.43" />
    </edge>
    <edge id=":D_14" function="internal">
        <lane id=":D_14_0" index="0" speed="3.65" length="1.44" shape="314.73,630.47 313.93,631.67" />
    </edge>
    <edge id=":D_24" function="internal">
        <lane id=":D_24_0" index="0" speed="9.26" length="14.34" shape="314.02,635.43 313.98,635.72 311.73,639.47 307.98,641.72 302.73,642.47" />
    </edge>
    <edge id=":D_25" function="internal">
        <lane id=":D_25_0" index="0" speed="3.65" length="3.23" shape="313.93,631.67 313.13,632.07 312.33,631.67 311.53,630.47" />
    </edge>
    <edge id=":D_15" function="internal">
        <lane id=":D_15_0" index="0" speed="6.51" length="9.03" shape="302.73,636.07 305.18,635.72 306.93,634.67 307.98,632.92 308.33,630.47" />
    </edge>
    <edge id=":D_16" function="internal">
        <lane id=":D_16_0" index="0" speed="17.88" length="20.80" shape="302.73,636.07 323.53,636.07" />
        <lane id=":D_16_1" index="1" speed="17.88" length="20.80" shape="302.73,639.27 323.53,639.27" />
    </edge>
    <edge id=":D_18" function="internal">
        <lane id=":D_18_0" index="0" speed="9.26" length="5.01" shape="302.73,639.27 307.70,639.98" />
    </edge>
    <edge id=":D_19" function="internal">
        <lane id=":D_19_0" index="0" speed="3.65" length="1.44" shape="302.73,639.27 303.93,640.07" />
    </edge>
    <edge id=":D_26" function="internal">
        <lane id=":D_26_0" index="0" speed="9.26" length="14.34" shape="307.70,639.98 307.98,640.02 311.73,642.27 313.98,646.02 314.73,651.27" />
    </edge>
    <edge id=":D_27" function="internal">
        <lane id=":D_27_0" index="0" speed="3.65" length="3.23" shape="303.93,640.07 304.33,640.87 303.93,641.67 302.73,642.47" />
    </edge>
    <edge id=":DA_0" function="internal">
        <lane id=":DA_0_0" index="0" speed="3.65" length="4.67" shape="311.53,327.74 312.33,326.54 313.13,326.14 313.93,326.54 314.73,327.74" />
    </edge>
    <edge id=":DB_0" function="internal">
        <lane id=":DB_0_0" index="0" speed="3.65" length="4.67" shape="-0.00,642.47 -1.20,641.67 -1.60,640.87 -1.20,640.07 0.00,639.27" />
    </edge>
    <edge id=":DC_0" function="internal">
        <lane id=":DC_0_0" index="0" speed="3.65" length="4.67" shape="314.73,954.00 313.93,955.20 313.13,955.60 312.33,955.20 311.53,954.00" />
    </edge>
    <edge id=":TL_0" function="internal">
        <lane id=":TL_0_0" index="0" speed="6.51" length="9.03" shape="621.46,651.27 621.11,648.82 620.06,647.07 618.31,646.02 615.86,645.67" />
    </edge>
    <edge id=":TL_1" function="internal">
        <lane id=":TL_1_0" index="0" speed="17.88" length="21.09" shape="621.46,651.27 621.96,644.50 623.06,638.99 624.16,634.42 624.66,630.47" />
    </edge>
    <edge id=":TL_2" function="internal">
        <lane id=":TL_2_0" index="0" speed="9.26" length="7.32" shape="624.66,651.27 625.41,646.02 626.45,644.29" />
    </edge>
    <edge id=":TL_14" function="internal">
        <lane id=":TL_14_0" index="0" speed="9.26" length="12.03" shape="626.45,644.29 627.66,642.27 631.41,640.02 636.66,639.27" />
    </edge>
    <edge id=":TL_3" function="internal">
        <lane id=":TL_3_0" index="0" speed="7.33" length="11.73" shape="636.66,645.67 632.81,646.02 630.06,647.07 628.41,648.82 627.86,651.27" />
    </edge>
    <edge id=":TL_4" function="internal">
        <lane id=":TL_4_0" index="0" speed="17.88" length="20.80" shape="636.66,645.67 615.86,645.67" />
        <lane id=":TL_4_1" index="1" speed="17.88" length="20.80" shape="636.66,642.47 615.86,642.47" />
    </edge>
    <edge id=":TL_6" function="internal">
        <lane id=":TL_6_0" index="0" speed="9.26" length="5.01" shape="636.66,642.47 631.70,641.76" />
    </edge>
    <edge id=":TL_15" function="internal">
        <lane id=":TL_15_0" index="0" speed="9.26" length="14.34" shape="631.70,641.76 631.41,641.72 627.66,639.47 625.41,635.72 624.66,630.47" />
    </edge>
    <edge id=":TL_7" function="internal">
        <lane id=":TL_7_0" index="0" speed="6.51" length="9.03" shape="631.06,630.47 631.41,632.92 632.46,634.67 634.21,635.72 636.66,636.07" />
    </edge>
    <edge id=":TL_8" function="internal">
        <lane id=":TL_8_0" index="0" speed="17.88" length="21.09" shape="631.06,630.47 630.56,637.23 629.46,642.74 628.36,647.32 627.86,651.27" />
    </edge>
    <edge id=":TL_9" function="internal">
        <lane id=":TL_9_0" index="0" speed="9.26" length="7.32" shape="627.86,630.47 627.11,635.72 626.08,637.45" />
    </edge>
    <edge id=":TL_16" function="internal">
        <lane id=":TL_16_0" index="0" speed="9.26" length="12.03" shape="626.08,637.45 624.86,639.47 621.11,641.72 615.86,642.47" />
    </edge>
    <edge id=":TL_10" function="internal">
        <lane id=":TL_10_0" index="0" speed="7.33" length="11.73" shape="615.86,636.07 619.71,635.72 622.46,634.67 624.11,632.92 624.66,630.47" />
    </edge>
    <edge id=":TL_11" function="internal">
        <lane id=":TL_11_0" index="0" speed="17.88" length="20.80" shape="615.86,636.07 636.66,636.07" />
        <lane id=":TL_11_1" index="1" speed="17.88" length="20.80" shape="615.86,639.27 636.66,639.27" />
    </edge>
    <edge id=":TL_13" function="internal">
        <lane id=":TL_13_0" index="0" speed="9.26" length="5.01" shape="615.86,639.27 620.83,639.98" />
    </edge>
    <edge id=":TL_17" function="internal">
        <lane id=":TL_17_0" index="0" speed="9.26" length="14.34" shape="620.83,639.98 621.11,640.02 624.86,642.27 627.11,646.02 627.86,651.27" />
    </edge>

    <edge id="A2AA" from="A" to="AA" priority="-1">
        <lane id="A2AA_0" index="0" speed="17.88" length="517.72" shape="619.06,1167.39 101.35,1167.39" />
    </edge>
    <edge id="A2AB" from="A" to="AB" priority="-1">
        <lane id="A2AB_0" index="0" speed="17.88" length="517.72" shape="627.86,1172.99 627.86,1690.70" />
    </edge>
    <edge id="A2AC" from="A" to="AC" priority="-1">
        <lane id="A2AC_0" index="0" speed="17.88" length="517.72" shape="633.46,1164.19 1151.18,1164.19" />
    </edge>
    <edge id="A2TL" from="A" to="A_intern" priority="-1">
        <lane id="A2TL_0" index="0" speed="17.88" length="463.72" shape="624.66,1158.59 624.66,694.87" />
    </edge>
    <edge id="A2TL_intern" from="A_intern" to="TL" priority="-1">
        <lane id="A2TL_intern_0" index="0" speed="17.88" length="35.60" shape="621.46,686.87 621.46,651.27" />
        <lane id="A2TL_intern_1" index="1" speed="17.88" length="35.60" shape="624.66,686.87 624.66,651.27" />
    </edge>
    <edge id="AA2A" from="AA" to="A" priority="-1">
        <lane id="AA2A_0" index="0" speed="17.88" length="517.72" shape="101.35,1164.19 619.06,1164.19" />
    </edge>
    <edge id="AB2A" from="AB" to="A" priority="-1">
        <lane id="AB2A_0" index="0" speed="17.88" length="517.72" shape="624.66,1690.70 624.66,1172.99" />
    </edge>
    <edge id="AC2A" from="AC" to="A" priority="-1">
        <lane id="AC2A_0" index="0" speed="17.88" length="517.72" shape="1151.18,1167.39 633.46,1167.39" />
    </edge>
    <edge id="B2BA" from="B" to="BA" priority="-1">
        <lane id="B2BA_0" index="0" speed="17.88" length="630.47" shape="1271.93,651.27 1271.93,1281.74" />
        <lane id="B2BA_1" index="1" speed="17.88" length="630.47" shape="1268.73,651.27 1268.73,1281.74" />
    </edge>
    <edge id="B2BB" from="B" to="BB" priority="-1">
        <lane id="B2BB_0" index="0" speed="17.88" length="630.47" shape="1277.53,636.07 1908.00,636.07" />
        <lane id="B2BB_1" index="1" speed="17.88" length="630.47" shape="1277.53,639.27 1908.00,639.27" />
    </edge>
    <edge id="B2BC" from="B" to="BC" priority="-1">
        <lane id="B2BC_0" index="0" speed="17.88" length="630.47" shape="1262.33,630.47 1262.33,0.00" />
        <lane id="B2BC_1" index="1" speed="17.88" length="630.47" shape="1265.53,630.47 1265.53,0.00" />
    </edge>
    <edge id="B2TL" from="B" to="TL" priority="-1">
        <lane id="B2TL_0" index="0" speed="17.88" length="620.07" shape="1256.73,645.67 636.66,645.67" />
        <lane id="B2TL_1" index="1" speed="17.88" length="620.07" shape="1256.73,642.47 636.66,642.47" />
    </edge>
    <edge id="BA2B" from="BA" to="B" priority="-1">
        <lane id="BA2B_0" index="0" speed="17.88" length="630.47" shape="1262.33,1281.74 1262.33,651.27" />
        <lane id="BA2B_1" index="1" speed="17.88" length="630.47" shape="1265.53,1281.74 1265.53,651.27" />
    </edge>
    <edge id="BB2B" from="BB" to="B" priority="-1">
        <lane id="BB2B_0" index="0" speed="17.88" length="630.47" shape="1908.00,645.67 1277.53,645.67" />
        <lane id="BB2B_1" index="1" speed="17.88" length="630.47" shape="1908.00,642.47 1277.53,642.47" />
    </edge>
    <edge id="BC2B" from="BC" to="B" priority="-1">
        <lane id="BC2B_0" index="0" speed="17.88" length="630.47" shape="1271.93,0.00 1271.93,630.47" />
        <lane id="BC2B_1" index="1" speed="17.88" length="630.47" shape="1268.73,0.00 1268.73,630.47" />
    </edge>
    <edge id="C2CA" from="C" to="CA" priority="-1">
        <lane id="C2CA_0" index="0" speed="17.88" length="110.21" shape="633.46,521.86 743.67,521.86" />
    </edge>
    <edge id="C2CB" from="C" to="CB" priority="-1">
        <lane id="C2CB_0" index="0" speed="17.88" length="110.21" shape="624.66,516.26 624.66,406.05" />
    </edge>
    <edge id="C2CC" from="C" to="CC" priority="-1">
        <lane id="C2CC_0" index="0" speed="17.88" length="110.21" shape="619.06,525.06 508.86,525.06" />
    </edge>
    <edge id="C2TL" from="C" to="C_intern" priority="-1">
        <lane id="C2TL_0" index="0" speed="17.88" length="56.21" shape="627.86,530.66 627.86,586.87" />
    </edge>
    <edge id="C2TL_intern" from="C_intern" to="TL" priority="-1">
        <lane id="C2TL_intern_0" index="0" speed="17.88" length="35.60" shape="631.06,594.87 631.06,630.47" />
        <lane id="C2TL_intern_1" index="1" speed="17.88" length="35.60" shape="627.86,594.87 627.86,630.47" />
    </edge>
    <edge id="CA2C" from="CA" to="C" priority="-1">
        <lane id="CA2C_0" index="0" speed="17.88" length="110.21" shape="743.67,525.06 633.46,525.06" />
    </edge>
    <edge id="CB2C" from="CB" to="C" priority="-1">
        <lane id="CB2C_0" index="0" speed="17.88" length="110.21" shape="627.86,406.05 627.86,516.26" />
    </edge>
    <edge id="CC2C" from="CC" to="C" priority="-1">
        <lane id="CC2C_0" index="0" speed="17.88" length="110.21" shape="508.86,521.86 619.06,521.86" />
    </edge>
    <edge id="D2DA" from="D" to="DA" priority="-1">
        <lane id="D2DA_0" index="0" speed="17.88" length="302.73" shape="308.33,630.47 308.33,327.74" />
        <lane id="D2DA_1" index="1" speed="17.88" length="302.73" shape="311.53,630.47 311.53,327.74" />
    </edge>
    <edge id="D2DB" from="D" to="DB" priority="-1">
        <lane id="D2DB_0" index="0" speed="17.88" length="302.73" shape="302.73,645.67 -0.00,645.67" />
        <lane id="D2DB_1" index="1" speed="17.88" length="302.73" shape="302.73,642.47 -0.00,642.47" />
    </edge>
    <edge id="D2DC" from="D" to="DC" priority="-1">