<net xmlns:xsi="http://www.w3.org/2001/XMLSchema-instance" version="1.9" junctionCornerDetail="5" limitTurnSpeed="5.50" xsi:noNamespaceSchemaLocation="http://sumo.dlr.de/xsd/net_file.xsd">

    <location netOffset="553.62,637.63" convBoundary="0.00,0.00,1828.88,1744.87" origBoundary="-553.62,-637.63,1275.26,1107.24" projParameter="!" />

    <edge id=":A_0" function="internal">
        <lane id=":A_0_0" index="0" speed="7.33" length="11.73" shape="542.42,1208.05,0.34 542.07,1204.20,0.34 541.02,1201.45,0.34 539.27,1199.80,0.34 536.82,1199.25,0.34" />
    </edge>
    <edge id=":A_1" function="internal">
        <lane id=":A_1_0" index="0" speed="15.65" length="33.60" shape="542.42,1208.05,0.34 542.42,1174.45,0.33" />
        <lane id=":A_1_1" index="1" speed="15.65" length="33.60" shape="545.62,1208.05,0.34 545.62,1174.45,0.33" />
        <lane id=":A_1_2" index="2" speed="15.65" length="33.60" shape="548.82,1208.05,0.34 548.82,1174.45,0.33" />
        <lane id=":A_1_3" index="3" speed="15.65" length="33.60" shape="552.02,1208.05,0.34 552.02,1174.45,0.33" />
    </edge>
    <edge id=":A_5" function="internal">
        <lane id=":A_5_0" index="0" speed="10.88" length="6.03" shape="552.02,1208.05,0.34 552.73,1202.06,0.34" />
    </edge>
    <edge id=":A_6" function="internal">
        <lane id=":A_6_0" index="0" speed="3.65" length="1.44" shape="552.02,1208.05,0.34 552.82,1206.85,0.34" />
    </edge>
    <edge id=":A_25" function="internal">
        <lane id=":A_25_0" index="0" speed="10.88" length="21.12" shape="552.73,1202.06,0.34 552.97,1200.00,0.34 555.82,1194.25,0.34 560.57,1190.80,0.34 567.22,1189.65,0.34" />
    </edge>
    <edge id=":A_26" function="internal">
        <lane id=":A_26_0" index="0" speed="3.65" length="3.23" shape="552.82,1206.85,0.34 553.62,1206.45,0.34 554.42,1206.85,0.34 555.22,1208.05,0.34" />
    </edge>
    <edge id=":A_7" function="internal">
        <lane id=":A_7_0" index="0" speed="6.51" length="9.03" shape="567.22,1202.45,0.34 564.77,1202.80,0.34 563.02,1203.85,0.34 561.97,1205.60,0.34 561.62,1208.05,0.34" />
    </edge>
    <edge id=":A_8" function="internal">
        <lane id=":A_8_0" index="0" speed="15.65" length="30.62" shape="567.22,1202.45,0.34 558.13,1201.95,0.34 551.91,1200.85,0.34 545.75,1199.75,0.34 536.82,1199.25,0.34" />
        <lane id=":A_8_1" index="1" speed="15.65" length="30.62" shape="567.22,1199.25,0.34 558.13,1198.75,0.34 551.91,1197.65,0.34 545.75,1196.55,0.34 536.82,1196.05,0.34" />
        <lane id=":A_8_2" index="2" speed="15.65" length="30.62" shape="567.22,1196.05,0.34 558.13,1195.55,0.34 551.91,1194.45,0.34 545.75,1193.35,0.34 536.82,1192.85,0.34" />
    </edge>
    <edge id=":A_11" function="internal">
        <lane id=":A_11_0" index="0" speed="10.88" length="6.09" shape="567.22,1192.85,0.34 561.22,1191.81,0.34" />
    </edge>
    <edge id=":A_12" function="internal">
        <lane id=":A_12_0" index="0" speed="3.65" length="1.44" shape="567.22,1192.85,0.34 566.02,1192.05,0.34" />
    </edge>
    <edge id=":A_27" function="internal">
        <lane id=":A_27_0" index="0" speed="10.88" length="21.05" shape="561.22,1191.81,0.34 560.57,1191.70,0.33 555.82,1188.25,0.33 552.97,1182.50,0.33 552.02,1174.45,0.33" />
    </edge>
    <edge id=":A_28" function="internal">
        <lane id=":A_28_0" index="0" speed="3.65" length="3.23" shape="566.02,1192.05,0.34 565.62,1191.25,0.34 566.02,1190.45,0.34 567.22,1189.65,0.34" />
    </edge>
    <edge id=":A_13" function="internal">
        <lane id=":A_13_0" index="0" speed="7.33" length="11.73" shape="561.62,1174.45,0.33 561.97,1178.30,0.33 563.02,1181.05,0.33 564.77,1182.70,0.34 567.22,1183.25,0.34" />
    </edge>
    <edge id=":A_14" function="internal">
        <lane id=":A_14_0" index="0" speed="15.65" length="33.60" shape="561.62,1174.45,0.33 561.62,1208.05,0.34" />
        <lane id=":A_14_1" index="1" speed="15.65" length="33.60" shape="558.42,1174.45,0.33 558.42,1208.05,0.34" />
        <lane id=":A_14_2" index="2" speed="15.65" length="33.60" shape="555.22,1174.45,0.33 555.22,1208.05,0.34" />
    </edge>
    <edge id=":A_17" function="internal">
        <lane id=":A_17_0" index="0" speed="11.36" length="5.01" shape="555.22,1174.45,0.33 554.51,1179.41,0.33" />
    </edge>
    <edge id=":A_18" function="internal">
        <lane id=":A_18_0" index="0" speed="3.65" length="1.44" shape="555.22,1174.45,0.33 554.42,1175.65,0.33" />
    </edge>
    <edge id=":A_29" function="internal">
        <lane id=":A_29_0" index="0" speed="11.36" length="24.66" shape="554.51,1179.41,0.33 554.07,1182.50,0.33 550.62,1188.25,0.33 544.87,1191.70,0.33 536.82,1192.85,0.34" />
    </edge>
    <edge id=":A_30" function="internal">
        <lane id=":A_30_0" index="0" speed="3.65" length="3.23" shape="554.42,1175.65,0.33 553.62,1176.05,0.33 552.82,1175.65,0.33 552.02,1174.45,0.33" />
    </edge>
    <edge id=":A_19" function="internal">
        <lane id=":A_19_0" index="0" speed="6.51" length="9.03" shape="536.82,1180.05,0.34 539.27,1179.70,0.33 541.02,1178.65,0.33 542.07,1176.90,0.33 542.42,1174.45,0.33" />
    </edge>
    <edge id=":A_20" function="internal">
        <lane id=":A_20_0" index="0" speed="15.65" length="30.62" shape="536.82,1180.05,0.34 545.91,1180.55,0.34 552.13,1181.65,0.34 558.29,1182.75,0.34 567.22,1183.25,0.34" />
        <lane id=":A_20_1" index="1" speed="15.65" length="30.62" shape="536.82,1183.25,0.34 545.91,1183.75,0.34 552.13,1184.85,0.34 558.29,1185.95,0.34 567.22,1186.45,0.34" />
        <lane id=":A_20_2" index="2" speed="15.65" length="30.62" shape="536.82,1186.45,0.34 545.91,1186.95,0.34 552.13,1188.05,0.34 558.29,1189.15,0.34 567.22,1189.65,0.34" />
    </edge>
    <edge id=":A_23" function="internal">
        <lane id=":A_23_0" index="0" speed="11.36" length="7.98" shape="536.82,1189.65,0.34 544.72,1190.78,0.34" />
    </edge>
    <edge id=":A_24" function="internal">
        <lane id=":A_24_0" index="0" speed="3.65" length="1.44" shape="536.82,1189.65,0.34 538.02,1190.45,0.34" />
    </edge>
    <edge id=":A_31" function="internal">
        <lane id=":A_31_0" index="0" speed="11.36" length="21.69" shape="544.72,1190.78,0.34 544.87,1190.80,0.34 550.62,1194.25,0.34 554.07,1200.00,0.34 555.22,1208.05,0.34" />
    </edge>
    <edge id=":A_32" function="internal">
        <lane id=":A_32_0" index="0" speed="3.65" length="3.23" shape="538.02,1190.45,0.34 538.42,1191.25,0.34 538.02,1192.05,0.34 536.82,1192.85,0.34" />
    </edge>
    <edge id=":AA_0" function="internal">
        <lane id=":AA_0_0" index="0" speed="3.65" length="4.67" shape="0.00,1192.85,0.34 -1.20,1192.05,0.34 -1.60,1191.25,0.34 -1.20,1190.45,0.34 -0.00,1189.65,0.34" />
    </edge>
    <edge id=":AB_0" function="internal">
        <lane id=":AB_0_0" index="0" speed="3.65" length="4.67" shape="555.22,1744.87,0.34 554.42,1746.07,0.34 553.62,1746.47,0.34 552.82,1746.07,0.34 552.02,1744.87,0.34" />
    </edge>
    <edge id=":AC_0" function="internal">
        <lane id=":AC_0_0" index="0" speed="3.65" length="4.67" shape="1107.24,1189.65,0.34 1108.44,1190.45,0.34 1108.84,1191.25,0.34 1108.44,1192.05,0.34 1107.24,1192.85,0.34" />
    </edge>
    <edge id=":B_0" function="internal">
        <lane id=":B_0_0" index="0" speed="6.51" length="9.03" shape="1189.65,644.83,-21.37 1189.30,642.38,-21.37 1188.25,640.63,-21.37 1186.50,639.58,-21.37 1184.05,639.23,-21.37" />
    </edge>
    <edge id=":B_1" function="internal">
        <lane id=":B_1_0" index="0" speed="11.18" length="14.40" shape="1189.65,644.83,-21.37 1189.65,630.43,-21.37" />
    </edge>
    <edge id=":B_2" function="internal">
        <lane id=":B_2_0" index="0" speed="8.00" length="4.07" shape="1189.65,644.83,-21.37 1190.20,640.98,-21.37 1190.29,640.83,-21.37" />
    </edge>
    <edge id=":B_3" function="internal">
        <lane id=":B_3_0" index="0" speed="3.65" length="1.44" shape="1189.65,644.83,-21.37 1190.45,643.63,-21.37" />
    </edge>
    <edge id=":B_16" function="internal">
        <lane id=":B_16_0" index="0" speed="8.00" length="10.13" shape="1190.29,640.83,-21.37 1191.85,638.23,-21.37 1194.60,636.58,-21.37 1198.45,636.03,-21.37" />
    </edge>
    <edge id=":B_17" function="internal">
        <lane id=":B_17_0" index="0" speed="3.65" length="3.23" shape="1190.45,643.63,-21.37 1191.25,643.23,-21.37 1192.05,643.63,-21.37 1192.85,644.83,-21.37" />
    </edge>
    <edge id=":B_4" function="internal">
        <lane id=":B_4_0" index="0" speed="6.51" length="9.03" shape="1198.45,639.23,-21.37 1196.00,639.58,-21.37 1194.25,640.63,-21.37 1193.20,642.38,-21.37 1192.85,644.83,-21.37" />
    </edge>
    <edge id=":B_5" function="internal">
        <lane id=":B_5_0" index="0" speed="11.18" length="14.40" shape="1198.45,639.23,-21.37 1184.05,639.23,-21.37" />
    </edge>
    <edge id=":B_6" function="internal">
        <lane id=":B_6_0" index="0" speed="8.00" length="4.07" shape="1198.45,639.23,-21.37 1194.60,638.68,-21.37 1194.45,638.59,-21.37" />
    </edge>
    <edge id=":B_7" function="internal">
        <lane id=":B_7_0" index="0" speed="3.65" length="1.44" shape="1198.45,639.23,-21.37 1197.25,638.43,-21.37" />
    </edge>
    <edge id=":B_18" function="internal">
        <lane id=":B_18_0" index="0" speed="8.00" length="10.13" shape="1194.45,638.59,-21.37 1191.85,637.03,-21.37 1190.20,634.28,-21.37 1189.65,630.43,-21.37" />
    </edge>
    <edge id=":B_19" function="internal">
        <lane id=":B_19_0" index="0" speed="3.65" length="3.23" shape="1197.25,638.43,-21.37 1196.85,637.63,-21.37 1197.25,636.83,-21.37 1198.45,636.03,-21.37" />
    </edge>
    <edge id=":B_8" function="internal">
        <lane id=":B_8_0" index="0" speed="6.51" length="9.03" shape="1192.85,630.43,-21.37 1193.20,632.88,-21.37 1194.25,634.63,-21.37 1196.00,635.68,-21.37 1198.45,636.03,-21.37" />
    </edge>
    <edge id=":B_9" function="internal">
        <lane id=":B_9_0" index="0" speed="11.18" length="14.40" shape="1192.85,630.43,-21.37 1192.85,644.83,-21.37" />
    </edge>
    <edge id=":B_10" function="internal">
        <lane id=":B_10_0" index="0" speed="8.00" length="4.07" shape="1192.85,630.43,-21.37 1192.30,634.28,-21.37 1192.21,634.43,-21.37" />
    </edge>
    <edge id=":B_11" function="internal">
        <lane id=":B_11_0" index="0" speed="3.65" length="1.44" shape="1192.85,630.43,-21.37 1192.05,631.63,-21.37" />
    </edge>
    <edge id=":B_20" function="internal">
        <lane id=":B_20_0" index="0" speed="8.00" length="10.13" shape="1192.21,634.43,-21.37 1190.65,637.03,-21.37 1187.90,638.68,-21.37 1184.05,639.23,-21.37" />
    </edge>
    <edge id=":B_21" function="internal">
        <lane id=":B_21_0" index="0" speed="3.65" length="3.23" shape="1192.05,631.63,-21.37 1191.25,632.03,-21.37 1190.45,631.63,-21.37 1189.65,630.43,-21.37" />
    </edge>
    <edge id=":B_12" function="internal">
        <lane id=":B_12_0" index="0" speed="6.51" length="9.03" shape="1184.05,636.03,-21.37 1186.50,635.68,-21.37 1188.25,634.63,-21.37 1189.30,632.88,-21.37 1189.65,630.43,-21.37" />
    </edge>
    <edge id=":B_13" function="internal">
        <lane id=":B_13_0" index="0" speed="11.18" length="14.40" shape="1184.05,636.03,-21.37 1198.45,636.03,-21.37" />
    </edge>
    <edge id=":B_14" function="internal">
        <lane id=":B_14_0" index="0" speed="8.00" length="4.07" shape="1184.05,636.03,-21.37 1187.90,636.58,-21.37 1188.05,636.67,-21.37" />
    </edge>
    <edge id=":B_15" function="internal">
        <lane id=":B_15_0" index="0" speed="3.65" length="1.44" shape="1184.05,636.03,-21.37 1185.25,636.83,-21.37" />
    </edge>
    <edge id=":B_22" function="internal">
        <lane id=":B_22_0" index="0" speed="8.00" length="10.13" shape="1188.05,636.67,-21.37 1190.65,638.23,-21.37 1192.30,640.98,-21.37 1192.85,644.83,-21.37" />
    </edge>
    <edge id=":B_23" function="internal">
        <lane id=":B_23_0" index="0" speed="3.65" length="3.23" shape="1185.25,636.83,-21.37 1185.65,637.63,-21.37 1185.25,638.43,-21.37 1184.05,639.23,-21.37" />
    </edge>
    <edge id=":BA_0" function="internal">
        <lane id=":BA_0_0" index="0" speed="3.65" length="4.67" shape="1192.85,1275.26,-21.37 1192.05,1276.46,-21.37 1191.25,1276.86,-21.37 1190.45,1276.46,-21.37 1189.65,1275.26,-21.37" />
    </edge>
    <edge id=":BB_0" function="internal">
        <lane id=":BB_0_0" index="0" speed="3.65" length="4.67" shape="1828.88,636.03,-21.37 1830.08,636.83,-21.37 1830.48,637.63,-21.37 1830.08,638.43,-21.37 1828.88,639.23,-21.37" />
    </edge>
    <edge id=":BC_0" function="internal">
        <lane id=":BC_0_0" index="0" speed="3.65" length="4.67" shape="1189.65,0.00,-21.37 1190.45,-1.20,-21.37 1191.25,-1.60,-21.37 1192.05,-1.20,-21.37 1192.85,0.00,-21.37" />
    </edge>
    <edge id=":C_0" function="internal">
        <lane id=":C_0_0" index="0" speed="6.51" length="9.03" shape="536.02,354.48 535.67,352.03 534.62,350.28 532.87,349.23 530.42,348.88" />
        <lane id=":C_0_1" index="1" speed="7.33" length="11.73" shape="536.02,354.48 535.67,350.63 534.62,347.88 532.87,346.23 530.42,345.68" />
    </edge>
    <edge id=":C_2" function="internal">
        <lane id=":C_2_0" index="0" speed="15.65" length="46.40" shape="536.02,354.48 536.02,308.08" />
        <lane id=":C_2_1" index="1" speed="15.65" length="46.40" shape="539.22,354.48 539.22,308.08" />
        <lane id=":C_2_2" index="2" speed="15.65" length="46.40" shape="542.42,354.48 542.42,308.08" />
        <lane id=":C_2_3" index="3" speed="15.65" length="46.40" shape="545.62,354.48 545.62,308.08" />
        <lane id=":C_2_4" index="4" speed="15.65" length="46.40" shape="548.82,354.48 548.82,308.08" />
        <lane id=":C_2_5" index="5" speed="15.65" length="46.40" shape="552.02,354.48 552.02,308.08" />
    </edge>
    <edge id=":C_8" function="internal">
        <lane id=":C_8_0" index="0" speed="12.38" length="9.09" shape="552.02,354.48 552.72,345.42" />
        <lane id=":C_8_1" index="1" speed="11.89" length="8.06" shape="552.02,354.48 552.72,346.45" />
    </edge>
    <edge id=":C_10" function="internal">
        <lane id=":C_10_0" index="0" speed="3.65" length="1.44" shape="552.02,354.48 552.82,353.28" />
    </edge>
    <edge id=":C_35" function="internal">
        <lane id=":C_35_0" index="0" speed="12.38" length="26.36" shape="552.72,345.42 552.97,342.23 555.82,333.48 560.57,328.23 567.22,326.48" />
    </edge>
    <edge id=":C_36" function="internal">
        <lane id=":C_36_0" index="0" speed="11.89" length="24.56" shape="552.72,346.45 552.97,343.63 555.82,335.88 560.57,331.23 567.22,329.68" />
    </edge>
    <edge id=":C_37" function="internal">
        <lane id=":C_37_0" index="0" speed="3.65" length="3.23" shape="552.82,353.28 553.62,352.88 554.42,353.28 555.22,354.48" />
    </edge>
    <edge id=":C_11" function="internal">
        <lane id=":C_11_0" index="0" speed="8.83" length="17.50" shape="567.22,339.28 564.77,340.23 563.02,343.08 561.97,347.83 561.62,354.48" />
    </edge>
    <edge id=":C_12" function="internal">
        <lane id=":C_12_0" index="0" speed="15.65" length="37.36" shape="567.22,339.28 557.77,340.28 550.20,342.48 541.94,344.68 530.42,345.68" />
        <lane id=":C_12_1" index="1" speed="15.65" length="37.36" shape="567.22,336.08 557.77,337.08 550.20,339.28 541.94,341.48 530.42,342.48" />
        <lane id=":C_12_2" index="2" speed="15.65" length="37.36" shape="567.22,332.88 557.77,333.88 550.20,336.08 541.94,338.28 530.42,339.28" />
        <lane id=":C_12_3" index="3" speed="15.65" length="37.36" shape="567.22,332.88 530.42,336.08" />
    </edge>
    <edge id=":C_16" function="internal">
        <lane id=":C_16_0" index="0" speed="12.30" length="10.47" shape="567.22,332.88 559.17,331.33 557.41,329.90" />
        <lane id=":C_16_1" index="1" speed="11.89" length="9.05" shape="567.22,332.88 560.57,331.33 558.98,329.78" />
    </edge>
    <edge id=":C_18" function="internal">
        <lane id=":C_18_0" index="0" speed="3.65" length="2.34" shape="567.22,332.88 566.02,332.08 565.62,331.28" />
    </edge>
    <edge id=":C_38" function="internal">
        <lane id=":C_38_0" index="0" speed="12.30" length="24.52" shape="557.41,329.90 553.42,326.68 549.97,318.93 548.82,308.08" />
    </edge>
    <edge id=":C_39" function="internal">
        <lane id=":C_39_0" index="0" speed="11.89" length="23.57" shape="558.98,329.78 555.82,326.68 552.97,318.93 552.02,308.08" />
    </edge>
    <edge id=":C_40" function="internal">
        <lane id=":C_40_0" index="0" speed="3.65" length="2.34" shape="565.62,331.28 566.02,330.48 567.22,329.68" />
    </edge>
    <edge id=":C_19" function="internal">
        <lane id=":C_19_0" index="0" speed="6.51" length="9.03" shape="561.62,308.08 561.97,310.53 563.02,312.28 564.77,313.33 567.22,313.68" />
        <lane id=":C_19_1" index="1" speed="7.33" length="11.73" shape="561.62,308.08 561.97,311.93 563.02,314.68 564.77,316.33 567.22,316.88" />
    </edge>
    <edge id=":C_21" function="internal">
        <lane id=":C_21_0" index="0" speed="15.65" length="46.40" shape="561.62,308.08 561.62,354.48" />
        <lane id=":C_21_1" index="1" speed="15.65" length="46.40" shape="558.42,308.08 558.42,354.48" />
        <lane id=":C_21_2" index="2" speed="15.65" length="46.40" shape="555.22,308.08 555.22,354.48" />
    </edge>
    <edge id=":C_24" function="internal">
        <lane id=":C_24_0" index="0" speed="13.54" length="5.63" shape="555.22,308.08 554.51,313.67" />
        <lane id=":C_24_1" index="1" speed="13.13" length="5.01" shape="555.22,308.08 554.51,313.04" />
    </edge>
    <edge id=":C_26" function="internal">
        <lane id=":C_26_0" index="0" speed="3.65" length="1.44" shape="555.22,308.08 554.42,309.28" />
    </edge>
    <edge id=":C_41" function="internal">
        <lane id=":C_41_0" index="0" speed="13.54" length="36.97" shape="554.51,313.67 553.67,320.33 549.02,329.08 541.27,334.33 530.42,336.08" />
    </edge>
    <edge id=":C_42" function="internal">
        <lane id=":C_42_0" index="0" speed="13.13" length="34.98" shape="554.51,313.04 553.67,318.93 549.02,326.68 541.27,331.33 530.42,332.88" />
    </edge>
    <edge id=":C_43" function="internal">
        <lane id=":C_43_0" index="0" speed="3.65" length="3.23" shape="554.42,309.28 553.62,309.68 552.82,309.28 552.02,308.08" />
    </edge>
    <edge id=":C_27" function="internal">
        <lane id=":C_27_0" index="0" speed="8.83" length="17.50" shape="530.42,323.28 532.87,322.33 534.62,319.48 535.67,314.73 536.02,308.08" />
        <lane id=":C_27_1" index="1" speed="9.32" length="19.63" shape="530.42,323.28 534.27,322.33 537.02,319.48 538.67,314.73 539.22,308.08" />
    </edge>
    <edge id=":C_29" function="internal">
        <lane id=":C_29_0" index="0" speed="15.65" length="37.36" shape="530.42,323.28 539.87,322.28 547.44,320.08 555.70,317.88 567.22,316.88" />
        <lane id=":C_29_1" index="1" speed="15.65" length="37.36" shape="530.42,326.48 539.87,325.48 547.44,323.28 555.70,321.08 567.22,320.08" />
        <lane id=":C_29_2" index="2" speed="15.65" length="37.36" shape="530.42,329.68 539.87,328.68 547.44,326.48 555.70,324.28 567.22,323.28" />
        <lane id=":C_29_3" index="3" speed="15.65" length="37.36" shape="530.42,329.68 567.22,326.48" />
    </edge>
    <edge id=":C_33" function="internal">
        <lane id=":C_33_0" index="0" speed="13.13" length="13.26" shape="530.42,329.68 541.27,331.23 543.24,332.41" />
    </edge>
    <edge id=":C_34" function="internal">
        <lane id=":C_34_0" index="0" speed="3.65" length="2.34" shape="530.42,329.68 531.62,330.48 532.02,331.28" />
    </edge>
    <edge id=":C_44" function="internal">
        <lane id=":C_44_0" index="0" speed="13.13" length="26.74" shape="543.24,332.41 549.02,335.88 553.67,343.63 555.22,354.48" />
    </edge>
    <edge id=":C_45" function="internal">
        <lane id=":C_45_0" index="0" speed="3.65" length="2.34" shape="532.02,331.28 531.62,332.08 530.42,332.88" />
    </edge>
    <edge id=":CA_0" function="internal">
        <lane id=":CA_0_0" index="0" speed="3.65" length="4.67" shape="859.97,329.68 861.17,330.48 861.57,331.28 861.17,332.08 859.97,332.88" />
    </edge>
    <edge id=":CB_0" function="internal">
        <lane id=":CB_0_0" index="0" speed="3.65" length="4.67" shape="552.02,24.93 552.82,23.73 553.62,23.33 554.42,23.73 555.22,24.93" />
    </edge>
    <edge id=":CC_0" function="internal">
        <lane id=":CC_0_0" index="0" speed="3.65" length="4.67" shape="247.27,332.88 246.07,332.08 245.67,331.28 246.07,330.48 247.27,329.68" />
    </edge>
    <edge id=":D_0" function="internal">
        <lane id=":D_0_0" index="0" speed="9.32" length="19.63" shape="465.18,641.63,-1.81 466.13,637.78,-1.81 468.98,635.03,-1.81 473.73,633.38,-1.81 480.38,632.83,-1.81" />
        <lane id=":D_0_1" index="1" speed="8.10" length="14.57" shape="468.38,641.63,-1.81 469.13,639.18,-1.81 471.38,637.43,-1.81 475.13,636.38,-1.81 480.38,636.03,-1.81" />
    </edge>
    <edge id=":D_2" function="internal">
        <lane id=":D_2_0" index="0" speed="6.51" length="9.03" shape="474.78,627.23,-1.81 475.13,629.68,-1.81 476.18,631.43,-1.81 477.93,632.48,-1.81 480.38,632.83,-1.81" />
        <lane id=":D_2_1" index="1" speed="8.00" length="14.19" shape="471.58,627.23,-1.81 472.13,631.08,-1.81 473.78,633.83,-1.81 476.53,635.48,-1.81 480.38,636.03,-1.81" />
    </edge>
    <edge id=":D_4" function="internal">
        <lane id=":D_4_0" index="0" speed="31.29" length="20.80" shape="459.58,632.83,-1.81 480.38,632.83,-1.81" />
        <lane id=":D_4_1" index="1" speed="31.29" length="20.80" shape="459.58,636.03,-1.81 480.38,636.03,-1.81" />
    </edge>
    <edge id=":TL_0" function="internal">
        <lane id=":TL_0_0" index="0" speed="15.65" length="19.08" shape="542.42,644.83,0.00 541.42,639.44,0.00 539.22,636.03,0.00 537.02,632.61,0.00 536.02,627.23" />
        <lane id=":TL_0_1" index="1" speed="15.65" length="19.08" shape="545.62,644.83,0.00 544.62,639.44,0.00 542.42,636.03,0.00 540.22,632.61,0.00 539.22,627.23" />
        <lane id=":TL_0_2" index="2" speed="15.65" length="19.08" shape="548.82,644.83,0.00 547.82,639.44,0.00 545.62,636.03,0.00 543.42,632.61,0.00 542.42,627.23" />
    </edge>
    <edge id=":TL_3" function="internal">
        <lane id=":TL_3_0" index="0" speed="9.32" length="3.03" shape="552.02,644.83,0.00 552.75,641.88,0.00" />
    </edge>
    <edge id=":TL_13" function="internal">
        <lane id=":TL_13_0" index="0" speed="9.32" length="16.60" shape="552.75,641.88,0.00 552.97,640.98,0.00 555.82,638.23,0.00 560.57,636.58,0.00 567.22,636.03" />
    </edge>
    <edge id=":TL_4" function="internal">
        <lane id=":TL_4_0" index="0" speed="6.51" length="9.03" shape="567.22,639.23 564.77,639.58,0.00 563.02,640.63,0.00 561.97,642.38,0.00 561.62,644.83,0.00" />
    </edge>
    <edge id=":TL_5" function="internal">
        <lane id=":TL_5_0" index="0" speed="7.33" length="11.73" shape="561.62,627.23 561.97,631.08 563.02,633.83 564.77,635.48 567.22,636.03" />
    </edge>
    <edge id=":TL_6" function="internal">
        <lane id=":TL_6_0" index="0" speed="15.65" length="17.60" shape="561.62,627.23 561.62,644.83,0.00" />
        <lane id=":TL_6_1" index="1" speed="15.65" length="17.60" shape="558.42,627.23 558.42,644.83,0.00" />
        <lane id=":TL_6_2" index="2" speed="15.65" length="17.60" shape="555.22,627.23 555.22,644.83,0.00" />
    </edge>
    <edge id=":TL_9" function="internal">
        <lane id=":TL_9_0" index="0" speed="6.51" length="9.03" shape="530.42,632.83 532.87,632.48 534.62,631.43 535.67,629.68 536.02,627.23" />
    </edge>
    <edge id=":TL_10" function="internal">
        <lane id=":TL_10_0" index="0" speed="21.23" length="36.87" shape="530.42,632.83 567.22,636.03" />
        <lane id=":TL_10_1" index="1" speed="21.23" length="36.87" shape="530.42,636.03 567.22,636.03" />
    </edge>
    <edge id=":TL_12" function="internal">
        <lane id=":TL_12_0" index="0" speed="11.11" length="28.34" shape="530.42,636.03 541.27,636.58,0.00 549.02,638.23,0.00 553.67,640.98,0.00 555.22,644.83,0.00" />
    </edge>

    <edge id="A2AA" from="A" to="AA" priority="-1">
        <lane id="A2AA_0" index="0" speed="15.65" length="536.82" shape="536.82,1199.25,0.34 0.00,1199.25,0.34" />
        <lane id="A2AA_1" index="1" speed="15.65" length="536.82" shape="536.82,1196.05,0.34 0.00,1196.05,0.34" />
        <lane id="A2AA_2" index="2" speed="15.65" length="536.82" shape="536.82,1192.85,0.34 0.00,1192.85,0.34" />
    </edge>
    <edge id="A2AB" from="A" to="AB" priority="-1">
        <lane id="A2AB_0" index="0" speed="15.65" length="536.82" shape="561.62,1208.05,0.34 561.62,1744.87,0.34" />
        <lane id="A2AB_1" index="1" speed="15.65" length="536.82" shape="558.42,1208.05,0.34 558.42,1744.87,0.34" />
        <lane id="A2AB_2" index="2" speed="15.65" length="536.82" shape="555.22,1208.05,0.34 555.22,1744.87,0.34" />
    </edge>
    <edge id="A2AC" from="A" to="AC" priority="-1">
        <lane id="A2AC_0" index="0" speed="15.65" length="540.02" shape="567.22,1183.25,0.34 1107.24,1183.25,0.34" />
        <lane id="A2AC_1" index="1" speed="15.65" length="540.02" shape="567.22,1186.45,0.34 1107.24,1186.45,0.34" />
        <lane id="A2AC_2" index="2" speed="15.65" length="540.02" shape="567.22,1189.65,0.34 1107.24,1189.65,0.34" />
    </edge>
    <edge id="A2TL" from="A" to="TL" priority="-1">
        <lane id="A2TL_0" index="0" speed="15.65" length="529.62" shape="542.42,1174.45,0.33 542.42,644.83,0.00" />
        <lane id="A2TL_1" index="1" speed="15.65" length="529.62" shape="545.62,1174.45,0.33 545.62,644.83,0.00" />
        <lane id="A2TL_2" index="2" speed="15.65" length="529.62" shape="548.82,1174.45,0.33 548.82,644.83,0.00" />
        <lane id="A2TL_3" index="3" speed="15.65" length="529.62" shape="552.02,1174.45,0.33 552.02,644.83,0.00" />
    </edge>
    <edge id="AA2A" from="AA" to="A" priority="-1">
        <lane id="AA2A_0" index="0" speed="15.65" length="536.82" shape="-0.00,1180.05,0.34 536.82,1180.05,0.34" />
        <lane id="AA2A_1" index="1" speed="15.65" length="536.82" shape="-0.00,1183.25,0.34 536.82,1183.25,0.34" />
        <lane id="AA2A_2" index="2" speed="15.65" length="536.82" shape="-0.00,1186.45,0.34 536.82,1186.45,0.34" />
        <lane id="AA2A_3" index="3" speed="15.65" length="536.82" shape="-0.00,1189.65,0.34 536.82,1189.65,0.34" />
    </edge>
    <edge id="AB2A" from="AB" to="A" priority="-1">
        <lane id="AB2A_0" index="0" speed="15.65" length="536.82" shape="542.42,1744.87,0.34 542.42,1208.05,0.34" />
        <lane id="AB2A_1" index="1" speed="15.65" length="536.82" shape="545.62,1744.87,0.34 545.62,1208.05,0.34" />
        <lane id="AB2A_2" index="2" speed="15.65" length="536.82" shape="548.82,1744.87,0.34 548.82,1208.05,0.34" />
        <lane id="AB2A_3" index="3" speed="15.65" length="536.82" shape="552.02,1744.87,0.34 552.02,1208.05,0.34" />
    </edge>
    <edge id="AC2A" from="AC" to="A" priority="-1">
        <lane id="AC2A_0" index="0" speed="15.65" length="540.02" shape="1107.24,1202.45,0.34 567.22,1202.45,0.34" />
        <lane id="AC2A_1" index="1" speed="15.65" length="540.02" shape="1107.24,1199.25,0.34 567.22,1199.25,0.34" />
        <lane id="AC2A_2" index="2" speed="15.65" length="540.02" shape="1107.24,1196.05,0.34 567.22,1196.05,0.34" />
        <lane id="AC2A_3" index="3" speed="15.65" length="540.02" shape="1107.24,1192.85,0.34 567.22,1192.85,0.34" />
    </edge>
    <edge id="B2BA" from="B" to="BA" priority="-1">
        <lane id="B2BA_0" index="0" speed="11.18" length="630.43" shape="1192.85,644.83,-21.37 1192.85,1275.26,-21.37" />
    </edge>
    <edge id="B2BB" from="B" to="BB" priority="-1">
        <lane id="B2BB_0" index="0" speed="11.18" length="630.43" shape="1198.45,636.03,-21.37 1828.88,636.03,-21.37" />
    </edge>
    <edge id="B2BC" from="B" to="BC" priority="-1">
        <lane id="B2BC_0" index="0" speed="11.18" length="630.43" shape="1189.65,630.43,-21.37 1189.65,0.00,-21.37" />
    </edge>
    <edge id="B2TL" from="B" to="TL" priority="-1">
        <lane id="B2TL_0" index="0" speed="11.18" length="617.20" shape="1184.05,639.23,-21.37 567.22,639.23" />
    </edge>
    <edge id="BA2B" from="BA" to="B" priority="-1">
        <lane id="BA2B_0" index="0" speed="11.18" length="630.43" shape="1189.65,1275.26,-21.37 1189.65,644.83,-21.37" />
    </edge>
    <edge id="BB2B" from="BB" to="B" priority="-1">
        <lane id="BB2B_0" index="0" speed="11.18" length="630.43" shape="1828.88,639.23,-21.37 1198.45,639.23,-21.37" />
    </edge>
    <edge id="BC2B" from="BC" to="B" priority="-1">
        <lane id="BC2B_0" index="0" speed="11.18" length="630.43" shape="1192.85,0.00,-21.37 1192.85,630.43,-21.37" />
    </edge>
    <edge id="C2CA" from="C" to="CA" priority="-1">
        <lane id="C2CA_0" index="0" speed="15.65" length="292.75" shape="567.22,313.68 859.97,313.68" />
        <lane id="C2CA_1" index="1" speed="15.65" length="292.75" shape="567.22,316.88 859.97,316.88" />
        <lane id="C2CA_2" index="2" speed="15.65" length="292.75" shape="567.22,320.08 859.97,320.08" />
        <lane id="C2CA_3" index="3" speed="15.65" length="292.75" shape="567.22,323.28 859.97,323.28" />
        <lane id="C2CA_4" index="4" speed="15.65" length="292.75" shape="567.22,326.48 859.97,326.48" />
        <lane id="C2CA_5" index="5" speed="15.65" length="292.75" shape="567.22,329.68 859.97,329.68" />
    </edge>
    <edge id="C2CB" from="C" to="CB" priority="-1">
        <lane id="C2CB_0" index="0" speed="15.65" length="283.15" shape="536.02,308.08 536.02,24.93" />
        <lane id="C2CB_1" index="1" speed="15.65" length="283.15" shape="539.22,308.08 539.22,24.93" />
        <lane id="C2CB_2" index="2" speed="15.65" length="283.15" shape="542.42,308.08 542.42,24.93" />
        <lane id="C2CB_3" index="3" speed="15.65" length="283.15" shape="545.62,308.08 545.62,24.93" />
        <lane id="C2CB_4" index="4" speed="15.65" length="283.15" shape="548.82,308.08 548.82,24.93" />