<net xmlns:xsi="http://www.w3.org/2001/XMLSchema-instance" version="1.9" junctionCornerDetail="5" limitTurnSpeed="5.50" xsi:noNamespaceSchemaLocation="http://sumo.dlr.de/xsd/net_file.xsd">

    <location netOffset="633.27,640.78" convBoundary="0.00,0.00,1259.43,1342.31" origBoundary="-633.27,-640.78,626.15,701.53" projParameter="!" />

    <edge id=":A_0" function="internal">
        <lane id=":A_0_0" index="0" speed="6.51" length="9.03" shape="628.47,1001.95,-2.25 628.12,999.50,-2.25 627.07,997.75,-2.25 625.32,996.70,-2.25 622.87,996.35,-2.25" />
    </edge>
    <edge id=":A_1" function="internal">
        <lane id=":A_1_0" index="0" speed="11.18" length="20.80" shape="628.47,1001.95,-2.25 628.47,981.15,-2.18" />
        <lane id=":A_1_1" index="1" speed="11.18" length="20.80" shape="631.67,1001.95,-2.25 631.67,981.15,-2.18" />
    </edge>
    <edge id=":A_3" function="internal">
        <lane id=":A_3_0" index="0" speed="9.26" length="5.01" shape="631.67,1001.95,-2.25 632.38,996.98,-2.25" />
    </edge>
    <edge id=":A_4" function="internal">
        <lane id=":A_4_0" index="0" speed="3.65" length="1.44" shape="631.67,1001.95,-2.25 632.47,1000.75,-2.25" />
    </edge>
    <edge id=":A_20" function="internal">
        <lane id=":A_20_0" index="0" speed="9.26" length="14.34" shape="632.38,996.98,-2.25 632.42,996.70,-2.25 634.67,992.95,-2.25 638.42,990.70,-2.25 643.67,989.95,-2.25" />
    </edge>
    <edge id=":A_21" function="internal">
        <lane id=":A_21_0" index="0" speed="3.65" length="3.23" shape="632.47,1000.75,-2.25 633.27,1000.35,-2.25 634.07,1000.75,-2.25 634.87,1001.95,-2.25" />
    </edge>
    <edge id=":A_5" function="internal">
        <lane id=":A_5_0" index="0" speed="6.51" length="9.03" shape="643.67,996.35,-2.25 641.22,996.70,-2.25 639.47,997.75,-2.25 638.42,999.50,-2.25 638.07,1001.95,-2.25" />
    </edge>
    <edge id=":A_6" function="internal">
        <lane id=":A_6_0" index="0" speed="11.18" length="20.80" shape="643.67,996.35,-2.25 622.87,996.35,-2.25" />
        <lane id=":A_6_1" index="1" speed="11.18" length="20.80" shape="643.67,993.15,-2.25 622.87,993.15,-2.25" />
    </edge>
    <edge id=":A_8" function="internal">
        <lane id=":A_8_0" index="0" speed="9.26" length="5.01" shape="643.67,993.15,-2.25 638.71,992.44,-2.23" />
    </edge>
    <edge id=":A_9" function="internal">
        <lane id=":A_9_0" index="0" speed="3.65" length="1.44" shape="643.67,993.15,-2.25 642.47,992.35,-2.25" />
    </edge>
    <edge id=":A_22" function="internal">
        <lane id=":A_22_0" index="0" speed="9.26" length="14.34" shape="638.71,992.44,-2.23 638.42,992.40,-2.23 634.67,990.15,-2.21 632.42,986.40,-2.20 631.67,981.15,-2.18" />
    </edge>
    <edge id=":A_23" function="internal">
        <lane id=":A_23_0" index="0" speed="3.65" length="3.23" shape="642.47,992.35,-2.25 642.07,991.55,-2.25 642.47,990.75,-2.25 643.67,989.95,-2.25" />
    </edge>
    <edge id=":A_10" function="internal">
        <lane id=":A_10_0" index="0" speed="6.51" length="9.03" shape="638.07,981.15,-2.18 638.42,983.60,-2.20 639.47,985.35,-2.21 641.22,986.40,-2.23 643.67,986.75,-2.25" />
    </edge>
    <edge id=":A_11" function="internal">
        <lane id=":A_11_0" index="0" speed="11.18" length="20.80" shape="638.07,981.15,-2.18 638.07,1001.95,-2.25" />
        <lane id=":A_11_1" index="1" speed="11.18" length="20.80" shape="634.87,981.15,-2.18 634.87,1001.95,-2.25" />
    </edge>
    <edge id=":A_13" function="internal">
        <lane id=":A_13_0" index="0" speed="9.26" length="5.01" shape="634.87,981.15,-2.18 634.17,986.11,-2.20" />
    </edge>
    <edge id=":A_14" function="internal">
        <lane id=":A_14_0" index="0" speed="3.65" length="1.44" shape="634.87,981.15,-2.18 634.07,982.35,-2.18" />
    </edge>
    <edge id=":A_24" function="internal">
        <lane id=":A_24_0" index="0" speed="9.26" length="14.34" shape="634.17,986.11,-2.20 634.12,986.40,-2.20 631.87,990.15,-2.21 628.12,992.40,-2.23 622.87,993.15,-2.25" />
    </edge>
    <edge id=":A_25" function="internal">
        <lane id=":A_25_0" index="0" speed="3.65" length="3.23" shape="634.07,982.35,-2.18 633.27,982.75,-2.18 632.47,982.35,-2.18 631.67,981.15,-2.18" />
    </edge>
    <edge id=":A_15" function="internal">
        <lane id=":A_15_0" index="0" speed="6.51" length="9.03" shape="622.87,986.75,-2.25 625.32,986.40,-2.23 627.07,985.35,-2.21 628.12,983.60,-2.20 628.47,981.15,-2.18" />
    </edge>
    <edge id=":A_16" function="internal">
        <lane id=":A_16_0" index="0" speed="11.18" length="20.80" shape="622.87,986.75,-2.25 643.67,986.75,-2.25" />
        <lane id=":A_16_1" index="1" speed="11.18" length="20.80" shape="622.87,989.95,-2.25 643.67,989.95,-2.25" />
    </edge>
    <edge id=":A_18" function="internal">
        <lane id=":A_18_0" index="0" speed="9.26" length="5.01" shape="622.87,989.95,-2.25 627.84,990.65,-2.25" />
    </edge>
    <edge id=":A_19" function="internal">
        <lane id=":A_19_0" index="0" speed="3.65" length="1.44" shape="622.87,989.95,-2.25 624.07,990.75,-2.25" />
    </edge>
    <edge id=":A_26" function="internal">
        <lane id=":A_26_0" index="0" speed="9.26" length="14.34" shape="627.84,990.65,-2.25 628.12,990.70,-2.25 631.87,992.95,-2.25 634.12,996.70,-2.25 634.87,1001.95,-2.25" />
    </edge>
    <edge id=":A_27" function="internal">
        <lane id=":A_27_0" index="0" speed="3.65" length="3.23" shape="624.07,990.75,-2.25 624.47,991.55,-2.25 624.07,992.35,-2.25 622.87,993.15,-2.25" />
    </edge>
    <edge id=":AA_0" function="internal">
        <lane id=":AA_0_0" index="0" speed="3.65" length="4.67" shape="282.51,993.15,-2.25 281.31,992.35,-2.25 280.91,991.55,-2.25 281.31,990.75,-2.25 282.51,989.95,-2.25" />
    </edge>
    <edge id=":AB_0" function="internal">
        <lane id=":AB_0_0" index="0" speed="3.65" length="4.67" shape="634.87,1342.31,-2.25 634.07,1343.51,-2.25 633.27,1343.91,-2.25 632.47,1343.51,-2.25 631.67,1342.31,-2.25" />
    </edge>
    <edge id=":AC_0" function="internal">
        <lane id=":AC_0_0" index="0" speed="3.65" length="4.67" shape="984.04,989.95,-2.25 985.24,990.75,-2.25 985.64,991.55,-2.25 985.24,992.35,-2.25 984.04,993.15,-2.25" />
    </edge>
    <edge id=":B_0" function="internal">
        <lane id=":B_0_0" index="0" speed="6.51" length="9.03" shape="931.95,660.78,-4.10 931.60,658.33,-4.10 930.55,656.58,-4.10 928.80,655.53,-4.10 926.35,655.18,-4.10" />
        <lane id=":B_0_1" index="1" speed="8.00" length="14.19" shape="935.15,660.78,-4.10 934.60,656.93,-4.10 932.95,654.18,-4.10 930.20,652.53,-4.10 926.35,651.98,-4.10" />
        <lane id=":B_0_2" index="2" speed="9.26" length="19.35" shape="938.35,660.78,-4.10 937.60,655.53,-4.10 935.35,651.78,-4.10 931.60,649.53,-4.10 926.35,648.78,-4.10" />
        <lane id=":B_0_3" index="3" speed="10.36" length="24.51" shape="941.55,660.78,-4.10 940.60,654.13,-4.10 937.75,649.38,-4.10 933.00,646.53,-4.10 926.35,645.58,-4.10" />
        <lane id=":B_0_4" index="4" speed="11.36" length="29.67" shape="944.75,660.78,-4.10 943.60,652.73,-4.10 940.15,646.98,-4.10 934.40,643.53,-4.10 926.35,642.38,-4.10" />
    </edge>
    <edge id=":B_5" function="internal">
        <lane id=":B_5_0" index="0" speed="17.88" length="40.00" shape="966.35,655.18,-4.10 926.35,655.18,-4.10" />
        <lane id=":B_5_1" index="1" speed="17.88" length="40.00" shape="966.35,651.98,-4.10 926.35,651.98,-4.10" />
        <lane id=":B_5_2" index="2" speed="17.88" length="40.00" shape="966.35,648.78,-4.10 926.35,648.78,-4.10" />
        <lane id=":B_5_3" index="3" speed="17.88" length="40.00" shape="966.35,645.58,-4.10 926.35,645.58,-4.10" />
        <lane id=":B_5_4" index="4" speed="17.88" length="40.00" shape="966.35,642.38,-4.10 926.35,642.38,-4.10" />
    </edge>
    <edge id=":B_10" function="internal">
        <lane id=":B_10_0" index="0" speed="13.66" length="43.36" shape="960.75,636.78,-4.10 958.60,644.83,-4.10 952.15,650.58,-4.10 941.40,654.03,-4.10 926.35,655.18,-4.10" />
        <lane id=":B_10_1" index="1" speed="12.86" length="38.31" shape="957.55,636.78,-4.10 955.60,643.43,-4.10 949.75,648.18,-4.10 940.00,651.03,-4.10 926.35,651.98,-4.10" />
        <lane id=":B_10_2" index="2" speed="12.01" length="33.29" shape="954.35,636.78,-4.10 952.60,642.03,-4.10 947.35,645.78,-4.10 938.60,648.03,-4.10 926.35,648.78,-4.10" />
        <lane id=":B_10_3" index="3" speed="11.11" length="28.34" shape="951.15,636.78,-4.10 949.60,640.63,-4.10 944.95,643.38,-4.10 937.20,645.03,-4.10 926.35,645.58,-4.10" />
        <lane id=":B_10_4" index="4" speed="10.16" length="23.50" shape="947.95,636.78,-4.10 946.60,639.23,-4.10 942.55,640.98,-4.10 935.80,642.03,-4.10 926.35,642.38,-4.10" />
    </edge>
    <edge id=":C_0" function="internal">
        <lane id=":C_0_0" index="0" speed="6.51" length="9.03" shape="628.47,330.79,2.65 628.12,328.34,2.67 627.07,326.59,2.69 625.32,325.54,2.71 622.87,325.19,2.73" />
    </edge>
    <edge id=":C_1" function="internal">
        <lane id=":C_1_0" index="0" speed="11.18" length="20.80" shape="628.47,330.79,2.65 628.47,309.99,2.73" />
        <lane id=":C_1_1" index="1" speed="11.18" length="20.80" shape="631.67,330.79,2.65 631.67,309.99,2.73" />
    </edge>
    <edge id=":C_3" function="internal">
        <lane id=":C_3_0" index="0" speed="9.26" length="5.01" shape="631.67,330.79,2.65 632.38,325.83,2.67" />
    </edge>
    <edge id=":C_4" function="internal">
        <lane id=":C_4_0" index="0" speed="3.65" length="1.44" shape="631.67,330.79,2.65 632.47,329.59,2.65" />
    </edge>
    <edge id=":C_20" function="internal">
        <lane id=":C_20_0" index="0" speed="9.26" length="14.34" shape="632.38,325.83,2.67 632.42,325.54,2.67 634.67,321.79,2.69 638.42,319.54,2.71 643.67,318.79,2.73" />
    </edge>
    <edge id=":C_21" function="internal">
        <lane id=":C_21_0" index="0" speed="3.65" length="3.23" shape="632.47,329.59,2.65 633.27,329.19,2.65 634.07,329.59,2.65 634.87,330.79,2.65" />
    </edge>
    <edge id=":C_5" function="internal">
        <lane id=":C_5_0" index="0" speed="6.51" length="9.03" shape="643.67,325.19,2.73 641.22,325.54,2.71 639.47,326.59,2.69 638.42,328.34,2.67 638.07,330.79,2.65" />
    </edge>
    <edge id=":C_6" function="internal">
        <lane id=":C_6_0" index="0" speed="11.18" length="20.80" shape="643.67,325.19,2.73 622.87,325.19,2.73" />
        <lane id=":C_6_1" index="1" speed="11.18" length="20.80" shape="643.67,321.99,2.73 622.87,321.99,2.73" />
    </edge>
    <edge id=":C_8" function="internal">
        <lane id=":C_8_0" index="0" speed="9.26" length="5.01" shape="643.67,321.99,2.73 638.71,321.28,2.73" />
    </edge>
    <edge id=":C_9" function="internal">
        <lane id=":C_9_0" index="0" speed="3.65" length="1.44" shape="643.67,321.99,2.73 642.47,321.19,2.73" />
    </edge>
    <edge id=":C_22" function="internal">
        <lane id=":C_22_0" index="0" speed="9.26" length="14.34" shape="638.71,321.28,2.73 638.42,321.24,2.73 634.67,318.99,2.73 632.42,315.24,2.73 631.67,309.99,2.73" />
    </edge>
    <edge id=":C_23" function="internal">
        <lane id=":C_23_0" index="0" speed="3.65" length="3.23" shape="642.47,321.19,2.73 642.07,320.39,2.73 642.47,319.59,2.73 643.67,318.79,2.73" />
    </edge>
    <edge id=":C_10" function="internal">
        <lane id=":C_10_0" index="0" speed="6.51" length="9.03" shape="638.07,309.99,2.73 638.42,312.44,2.73 639.47,314.19,2.73 641.22,315.24,2.73 643.67,315.59,2.73" />
    </edge>
    <edge id=":C_11" function="internal">
        <lane id=":C_11_0" index="0" speed="11.18" length="20.80" shape="638.07,309.99,2.73 638.07,330.79,2.65" />
        <lane id=":C_11_1" index="1" speed="11.18" length="20.80" shape="634.87,309.99,2.73 634.87,330.79,2.65" />
    </edge>
    <edge id=":C_13" function="internal">
        <lane id=":C_13_0" index="0" speed="9.26" length="5.01" shape="634.87,309.99,2.73 634.17,314.95,2.73" />
    </edge>
    <edge id=":C_14" function="internal">
        <lane id=":C_14_0" index="0" speed="3.65" length="1.44" shape="634.87,309.99,2.73 634.07,311.19,2.73" />
    </edge>
    <edge id=":C_24" function="internal">
        <lane id=":C_24_0" index="0" speed="9.26" length="14.34" shape="634.17,314.95,2.73 634.12,315.24,2.73 631.87,318.99,2.73 628.12,321.24,2.73 622.87,321.99,2.73" />
    </edge>
    <edge id=":C_25" function="internal">
        <lane id=":C_25_0" index="0" speed="3.65" length="3.23" shape="634.07,311.19,2.73 633.27,311.59,2.73 632.47,311.19,2.73 631.67,309.99,2.73" />
    </edge>
    <edge id=":C_15" function="internal">
        <lane id=":C_15_0" index="0" speed="6.51" length="9.03" shape="622.87,315.59,2.73 625.32,315.24,2.73 627.07,314.19,2.73 628.12,312.44,2.73 628.47,309.99,2.73" />
    </edge>
    <edge id=":C_16" function="internal">
        <lane id=":C_16_0" index="0" speed="11.18" length="20.80" shape="622.87,315.59,2.73 643.67,315.59,2.73" />
        <lane id=":C_16_1" index="1" speed="11.18" length="20.80" shape="622.87,318.79,2.73 643.67,318.79,2.73" />
    </edge>
    <edge id=":C_18" function="internal">
        <lane id=":C_18_0" index="0" speed="9.26" length="5.01" shape="622.87,318.79,2.73 627.84,319.50,2.71" />
    </edge>
    <edge id=":C_19" function="internal">
        <lane id=":C_19_0" index="0" speed="3.65" length="1.44" shape="622.87,318.79,2.73 624.07,319.59,2.73" />
    </edge>
    <edge id=":C_26" function="internal">
        <lane id=":C_26_0" index="0" speed="9.26" length="14.34" shape="627.84,319.50,2.71 628.12,319.54,2.71 631.87,321.79,2.69 634.12,325.54,2.67 634.87,330.79,2.65" />
    </edge>
    <edge id=":C_27" function="internal">
        <lane id=":C_27_0" index="0" speed="3.65" length="3.23" shape="624.07,319.59,2.73 624.47,320.39,2.73 624.07,321.19,2.73 622.87,321.99,2.73" />
    </edge>
    <edge id=":CA_0" function="internal">
        <lane id=":CA_0_0" index="0" speed="3.65" length="4.67" shape="953.66,318.79,2.73 954.86,319.59,2.73 955.26,320.39,2.73 954.86,321.19,2.73 953.66,321.99,2.73" />
    </edge>
    <edge id=":CB_0" function="internal">
        <lane id=":CB_0_0" index="0" speed="3.65" length="4.67" shape="631.67,0.00,2.73 632.47,-1.20,2.73 633.27,-1.60,2.73 634.07,-1.20,2.73 634.87,0.00,2.73" />
    </edge>
    <edge id=":CC_0" function="internal">
        <lane id=":CC_0_0" index="0" speed="3.65" length="4.67" shape="312.89,321.99,2.73 311.69,321.19,2.73 311.29,320.39,2.73 311.69,319.59,2.73 312.89,318.79,2.73" />
    </edge>
    <edge id=":D_0" function="internal">
        <lane id=":D_0_0" index="0" speed="6.51" length="9.03" shape="336.64,655.18,-0.81 334.19,655.53,-0.83 332.44,656.58,-0.84 331.39,658.33,-0.85 331.04,660.78,-0.87" />
        <lane id=":D_0_1" index="1" speed="7.33" length="11.73" shape="336.64,655.18,-0.81 332.79,655.53,-0.83 330.04,656.58,-0.85 328.39,658.33,-0.86 327.84,660.78,-0.87" />
        <lane id=":D_0_2" index="2" speed="8.10" length="14.57" shape="336.64,655.18,-0.81 331.39,655.53,-0.83 327.64,656.58,-0.85 325.39,658.33,-0.86 324.64,660.78,-0.87" />
        <lane id=":D_0_3" index="3" speed="8.83" length="17.50" shape="336.64,655.18,-0.81 329.99,655.53,-0.83 325.24,656.58,-0.85 322.39,658.33,-0.86 321.44,660.78,-0.87" />
        <lane id=":D_0_4" index="4" speed="9.51" length="20.48" shape="336.64,655.18,-0.81 328.59,655.53,-0.84 322.84,656.58,-0.85 319.39,658.33,-0.86 318.24,660.78,-0.87" />
    </edge>
    <edge id=":D_5" function="internal">
        <lane id=":D_5_0" index="0" speed="15.65" length="40.00" shape="336.64,655.18,-0.81 296.64,655.18,-0.87" />
        <lane id=":D_5_1" index="1" speed="15.65" length="40.00" shape="336.64,651.98,-0.81 296.64,651.98,-0.87" />
        <lane id=":D_5_2" index="2" speed="15.65" length="40.00" shape="336.64,648.78,-0.81 296.64,648.78,-0.87" />
        <lane id=":D_5_3" index="3" speed="15.65" length="40.00" shape="336.64,645.58,-0.81 296.64,645.58,-0.87" />
        <lane id=":D_5_4" index="4" speed="15.65" length="40.00" shape="336.64,642.38,-0.81 296.64,642.38,-0.87" />
    </edge>
    <edge id=":D_10" function="internal">
        <lane id=":D_10_0" index="0" speed="12.44" length="35.80" shape="336.64,642.38,-0.81 321.59,642.03,-0.84 310.84,640.98,-0.85 304.39,639.23,-0.86 302.24,636.78,-0.87" />
        <lane id=":D_10_1" index="1" speed="11.91" length="32.70" shape="336.64,642.38,-0.81 322.99,642.03,-0.84 313.24,640.98,-0.85 307.39,639.23,-0.86 305.44,636.78,-0.87" />
        <lane id=":D_10_2" index="2" speed="11.35" length="29.61" shape="336.64,642.38,-0.81 324.39,642.03,-0.84 315.64,640.98,-0.85 310.39,639.23,-0.86 308.64,636.78,-0.87" />
        <lane id=":D_10_3" index="3" speed="10.77" length="26.54" shape="336.64,642.38,-0.81 325.79,642.03,-0.84 318.04,640.98,-0.85 313.39,639.23,-0.86 311.84,636.78,-0.87" />
        <lane id=":D_10_4" index="4" speed="10.16" length="23.50" shape="336.64,642.38,-0.81 327.19,642.03,-0.84 320.44,640.98,-0.85 316.39,639.23,-0.86 315.04,636.78,-0.87" />
    </edge>
    <edge id=":TL_0" function="internal">
        <lane id=":TL_0_0" index="0" speed="6.51" length="9.03" shape="628.47,660.78,-0.13 628.12,658.33,-0.10 627.07,656.58,-0.08 625.32,655.53,-0.06 622.87,655.18,-0.03" />
    </edge>
    <edge id=":TL_1" function="internal">
        <lane id=":TL_1_0" index="0" speed="11.18" length="24.00" shape="628.47,660.78,-0.13 628.47,636.78,0.03" />
        <lane id=":TL_1_1" index="1" speed="11.18" length="24.00" shape="631.67,660.78,-0.13 631.67,636.78,0.03" />
    </edge>
    <edge id=":TL_3" function="internal">
        <lane id=":TL_3_0" index="0" speed="6.51" length="9.03" shape="643.67,655.18,-0.15 641.22,655.53,-0.14 639.47,656.58,-0.14 638.42,658.33,-0.13 638.07,660.78,-0.13" />
    </edge>
    <edge id=":TL_4" function="internal">
        <lane id=":TL_4_0" index="0" speed="16.76" length="20.80" shape="643.67,655.18,-0.15 622.87,655.18,-0.03" />
        <lane id=":TL_4_1" index="1" speed="16.76" length="20.80" shape="643.67,651.98,-0.15 622.87,651.98,-0.03" />
        <lane id=":TL_4_2" index="2" speed="16.76" length="20.80" shape="643.67,648.78,-0.15 622.87,648.78,-0.03" />
        <lane id=":TL_4_3" index="3" speed="16.76" length="20.80" shape="643.67,645.58,-0.15 622.87,645.58,-0.03" />
        <lane id=":TL_4_4" index="4" speed="16.76" length="20.80" shape="643.67,642.38,-0.15 622.87,642.38,-0.03" />
    </edge>
    <edge id=":TL_9" function="internal">
        <lane id=":TL_9_0" index="0" speed="8.10" length="14.57" shape="643.67,642.38,-0.15 638.42,642.03,-0.08 634.67,640.98,-0.03 632.42,639.23,0.00 631.67,636.78,0.03" />
    </edge>
    <edge id=":TL_10" function="internal">
        <lane id=":TL_10_0" index="0" speed="11.18" length="24.00" shape="638.07,636.78,0.03 638.07,660.78,-0.13" />
        <lane id=":TL_10_1" index="1" speed="11.18" length="24.00" shape="634.87,636.78,0.03 634.87,660.78,-0.13" />
    </edge>
    <edge id=":TL_12" function="internal">
        <lane id=":TL_12_0" index="0" speed="8.10" length="2.37" shape="634.87,636.78,0.03 634.18,639.04,0.02" />
    </edge>
    <edge id=":TL_13" function="internal">
        <lane id=":TL_13_0" index="0" speed="8.10" length="12.20" shape="634.18,639.04,0.02 634.12,639.23,0.02 631.87,640.98,0.01 628.12,642.03,-0.01 622.87,642.38,-0.03" />
    </edge>

    <edge id="A2AA" from="A" to="AA" priority="-1">
        <lane id="A2AA_0" index="0" speed="11.18" length="340.37" shape="622.87,996.35,-2.25 282.51,996.35,-2.25" />
        <lane id="A2AA_1" index="1" speed="11.18" length="340.37" shape="622.87,993.15,-2.25 282.51,993.15,-2.25" />
    </edge>
    <edge id="A2AB" from="A" to="AB" priority="-1">
        <lane id="A2AB_0" index="0" speed="11.18" length="340.37" shape="638.07,1001.95,-2.25 638.07,1342.31,-2.25" />
        <lane id="A2AB_1" index="1" speed="11.18" length="340.37" shape="634.87,1001.95,-2.25 634.87,1342.31,-2.25" />
    </edge>
    <edge id="A2AC" from="A" to="AC" priority="-1">
        <lane id="A2AC_0" index="0" speed="11.18" length="340.37" shape="643.67,986.75,-2.25 984.04,986.75,-2.25" />
        <lane id="A2AC_1" index="1" speed="11.18" length="340.37" shape="643.67,989.95,-2.25 984.04,989.95,-2.25" />
    </edge>
    <edge id="A2TL" from="A" to="TL" priority="-1">
        <lane id="A2TL_0" index="0" speed="11.18" length="320.37" shape="628.47,981.15,-2.18 628.47,660.78,-0.13" />
        <lane id="A2TL_1" index="1" speed="11.18" length="320.37" shape="631.67,981.15,-2.18 631.67,660.78,-0.13" />
    </edge>
    <edge id="AA2A" from="AA" to="A" priority="-1">
        <lane id="AA2A_0" index="0" speed="11.18" length="340.37" shape="282.51,986.75,-2.25 622.87,986.75,-2.25" />
        <lane id="AA2A_1" index="1" speed="11.18" length="340.37" shape="282.51,989.95,-2.25 622.87,989.95,-2.25" />
    </edge>
    <edge id="AB2A" from="AB" to="A" priority="-1">
        <lane id="AB2A_0" index="0" speed="11.18" length="340.37" shape="628.47,1342.31,-2.25 628.47,1001.95,-2.25" />
        <lane id="AB2A_1" index="1" speed="11.18" length="340.37" shape="631.67,1342.31,-2.25 631.67,1001.95,-2.25" />
    </edge>
    <edge id="AC2A" from="AC" to="A" priority="-1">
        <lane id="AC2A_0" index="0" speed="11.18" length="340.37" shape="984.04,996.35,-2.25 643.67,996.35,-2.25" />
        <lane id="AC2A_1" index="1" speed="11.18" length="340.37" shape="984.04,993.15,-2.25 643.67,993.15,-2.25" />
    </edge>
    <edge id="B2TL" from="B" to="TL" priority="-1">
        <lane id="B2TL_0" index="0" speed="17.88" length="282.70" shape="926.35,655.18,-4.10 643.67,655.18,-0.15" />
        <lane id="B2TL_1" index="1" speed="17.88" length="282.70" shape="926.35,651.98,-4.10 643.67,651.98,-0.15" />
        <lane id="B2TL_2" index="2" speed="17.88" length="282.70" shape="926.35,648.78,-4.10 643.67,648.78,-0.15" />
        <lane id="B2TL_3" index="3" speed="17.88" length="282.70" shape="926.35,645.58,-4.10 643.67,645.58,-0.15" />
        <lane id="B2TL_4" index="4" speed="17.88" length="282.70" shape="926.35,642.38,-4.10 643.67,642.38,-0.15" />
    </edge>
    <edge id="BA2B" from="BA" to="B" priority="-1">
        <lane id="BA2B_0" index="0" speed="17.88" length="293.08" shape="931.95,953.85,-4.10 931.95,660.78,-4.10" />
        <lane id="BA2B_1" index="1" speed="17.88" length="293.08" shape="935.15,953.85,-4.10 935.15,660.78,-4.10" />
        <lane id="BA2B_2" index="2" speed="17.88" length="293.08" shape="938.35,953.85,-4.10 938.35,660.78,-4.10" />
        <lane id="BA2B_3" index="3" speed="17.88" length="293.08" shape="941.55,953.85,-4.10 941.55,660.78,-4.10" />
        <lane id="BA2B_4" index="4" speed="17.88" length="293.08" shape="944.75,953.85,-4.10 944.75,660.78,-4.10" />
    </edge>
    <edge id="BB2B" from="BB" to="B" priority="-1">
        <lane id="BB2B_0" index="0" speed="17.88" length="293.08" shape="1259.43,655.18,-4.10 966.35,655.18,-4.10" />
        <lane id="BB2B_1" index="1" speed="17.88" length="293.08" shape="1259.43,651.98,-4.10 966.35,651.98,-4.10" />
        <lane id="BB2B_2" index="2" speed="17.88" length="293.08" shape="1259.43,648.78,-4.10 966.35,648.78,-4.10" />
        <lane id="BB2B_3" index="3" speed="17.88" length="293.08" shape="1259.43,645.58,-4.10 966.35,645.58,-4.10" />
        <lane id="BB2B_4" index="4" speed="17.88" length="293.08" shape="1259.43,642.38,-4.10 966.35,642.38,-4.10" />
    </edge>
    <edge id="BC2B" from="BC" to="B" priority="-1">
        <lane id="BC2B_0" index="0" speed="17.88" length="309.08" shape="960.75,327.70,-4.10 960.75,636.78,-4.10" />
        <lane id="BC2B_1" index="1" speed="17.88" length="309.08" shape="957.55,327.70,-4.10 957.55,636.78,-4.10" />
        <lane id="BC2B_2" index="2" speed="17.88" length="309.08" shape="954.35,327.70,-4.10 954.35,636.78,-4.10" />
        <lane id="BC2B_3" index="3" speed="17.88" length="309.08" shape="951.15,327.70,-4.10 951.15,636.78,-4.10" />
        <lane id="BC2B_4" index="4" speed="17.88" length="309.08" shape="947.95,327.70,-4.10 947.95,636.78,-4.10" />
    </edge>
    <edge id="C2CA" from="C" to="CA" priority="-1">
        <lane id="C2CA_0" index="0" speed="11.18" length="309.99" shape="643.67,315.59,2.73 953.66,315.59,2.73" />
        <lane id="C2CA_1" index="1" speed="11.18" length="309.99" shape="643.67,318.79,2.73 953.66,318.79,2.73" />
    </edge>
    <edge id="C2CB" from="C" to="CB" priority="-1">
        <lane id="C2CB_0" index="0" speed="11.18" length="309.99" shape="628.47,309.99,2.73 628.47,0.00,2.73" />
        <lane id="C2CB_1" index="1" speed="11.18" length="309.99" shape="631.67,309.99,2.73 631.67,0.00,2.73" />
    </edge>
    <edge id="C2CC" from="C" to="CC" priority="-1">
        <lane id="C2CC_0" index="0" speed="11.18" length="309.99" shape="622.87,325.19,2.73 312.89,325.19,2.73" />
        <lane id="C2CC_1" index="1" speed="11.18" length="309.99" shape="622.87,321.99,2.73 312.89,321.99,2.73" />
    </edge>
    <edge id="C2TL" from="C" to="TL" priority="-1">
        <lane id="C2TL_0" index="0" speed="11.18" length="306.00" shape="638.07,330.79,2.65 638.07,636.78,0.03" />
        <lane id="C2TL_1" index="1" speed="11.18" length="306.00" shape="634.87,330.79,2.65 634.87,636.78,0.03" />
    </edge>
    <edge id="CA2C" from="CA" to="C" priority="-1">
        <lane id="CA2C_0" index="0" speed="11.18" length="309.99" shape="953.66,325.19,2.73 643.67,325.19,2.73" />
        <lane id="CA2C_1" index="1" speed="11.18" length="309.99" shape="953.66,321.99,2.73 643.67,321.99,2.73" />
    </edge>
    <edge id="CB2C" from="CB" to="C" priority="-1">
        <lane id="CB2C_0" index="0" speed="11.18" length="309.99" shape="638.07,0.00,2.73 638.07,309.99,2.73" />
        <lane id="CB2C_1" index="1" speed="11.18" length="309.99" shape="634.87,0.00,2.73 634.87,309.99,2.73" />
    </edge>
    <edge id="CC2C" from="CC" to="C" priority="-1">
        <lane id="CC2C_0" index="0" speed="11.18" length="309.99" shape="312.89,315.59,2.73 622.87,315.59,2.73" />
        <lane id="CC2C_1" index="1" speed="11.18" length="309.99" shape="312.89,318.79,2.73 622.87,318.79,2.73" />
    </edge>
    <edge id="D2DA" from="D" to="DA" priority="-1">
        <lane id="D2DA_0" index="0" speed="15.65" length="312.64" shape="302.24,636.78,-0.87 302.24,324.14,-0.87" />
        <lane id="D2DA_1" index="1" speed="15.65" length="312.64" shape="305.44,636.78,-0.87 305.44,324.14,-0.87" />
        <lane id="D2DA_2" index="2" speed="15.65" length="312.64" shape="308.64,636.78,-0.87 308.64,324.14,-0.87" />
        <lane id="D2DA_3" index="3" speed="15.65" length="312.64" shape="311.84,636.78,-0.87 311.84,324.14,-0.87" />
        <lane id="D2DA_4" index="4" speed="15.65" length="312.64" shape="315.04,636.78,-0.87 315.04,324.14,-0.87" />
    </edge>
    <edge id="D2DB" from="D" to="DB" priority="-1">
        <lane id="D2DB_0" index="0" speed="15.65" length="296.64" shape="296.64,655.18,-0.87 -0.00,655.18,-0.87" />
        <lane id="D2DB_1" index="1" speed="15.65" length="296.64" shape="296.64,651.98,-0.87 -0.00,651.98,-0.87" />
        <lane id="D2DB_2" index="2" speed="15.65" length="296.64" shape="296.64,648.78,-0.87 -0.00,648.78,-0.87" />
        <lane id="D2DB_3" index="3" speed="15.65" length="296.64" shape="296.64,645.58,-0.87 -0.00,645.58,-0.87" />
        <lane id="D2DB_4" index="4" speed="15.65" length="296.64" shape="296.64,642.38,-0.87 -0.00,642.38,-0.87" />
    </edge>
    <edge id="D2DC" from="D" to="DC" priority="-1">
        <lane id="D2DC_0" index="0" speed="15.65" length="296.64" shape="331.04,660.78,-0.87 331.04,957.42,-0.87" />
        <lane id="D2DC_1" index="1" speed="15.65" length="296.64" shape="327.84,660.78,-0.87 327.84,957.42,-0.87" />
        <lane id="D2DC_2" index="2" speed="15.65" length="296.64" shape="324.64,660.78,-0.87 324.64,957.42,-0.87" />
        <lane id="D2DC_3" index="3" speed="15.65" length="296.64" shape="321.44,660.78,-0.87 321.44,957.42,-0.87" />
        <lane id="D2DC_4" index="4" speed="15.65" length="296.64" shape="318.24,660.78,-0.87 318.24,957.42,-0.87" />
    </edge>
    <edge id="TL2A" from="TL" to="A" priority="-1">
        <lane id="TL2A_0" index="0" speed="11.18" length="320.37" shape="638.07,660.78,-0.13 638.07,981.15,-2.18" />
        <lane id="TL2A_1" index="1" speed="11.18" length="320.37" shape="634.87,660.78,-0.13 634.87,981.15,-2.18" />
    </edge>
    <edge id="TL2C" from="TL" to="C" priority="-1">
        <lane id="TL2C_0" index="0" speed="11.18" length="306.00" shape="628.47,636.78,0.03 628.47,330.79,2.65" />
        <lane id="TL2C_1" index="1" speed="11.18" length="306.00" shape="631.67,636.78,0.03 631.67,330.79,2.65" />
    </edge>
    <edge id="TL2D" from="TL" to="D" priority="-1">
        <lane id="TL2D_0" index="0" speed="15.65" length="286.24" shape="622.87,655.18,-0.03 336.64,655.18,-0.81" />
        <lane id="TL2D_1" index="1" speed="15.65" length="286.24" shape="622.87,651.98,-0.03 336.64,651.98,-0.81" />
        <lane id="TL2D_2" index="2" speed="15.65" length="286.24" shape="622.87,648.78,-0.03 336.64,648.78,-0.81" />
        <lane id="TL2D_3" index="3" speed="15.65" length="286.24" shape="622.87,645.58,-0.03 336.64,645.58,-0.81" />
        <lane id="TL2D_4" index="4" speed="15.65" length="286.24" shape="622.87,642.38,-0.03 336.64,642.38,-0.81" />
    </edge>

    <tlLogic id="A" type="static" programID="0" offset="0">
        <phase duration="42" state="GGGggrrrrrGGGggrrrrr" />
        <phase duration="3" state="yyyyyrrrrryyyyyrrrrr" />
        <phase duration="42" state="rrrrrGGGggrrrrrGGGgg" />
        <phase duration="3" state="rrrrryyyyyrrrrryyyyy" />
    </tlLogic>
    <tlLogic id="AA" type="static" programID="0" offset="0">
        <phase duration="82" state="G" />
        <phase duration="3" state="y" />
        <phase duration="5" state="r" />
    </tlLogic>
    <tlLogic id="AB" type="static" programID="0" offset="0">
        <phase duration="82" state="G" />
        <phase duration="3" state="y" />
        <phase duration="5" state="r" />
    </tlLogic>
    <tlLogic id="AC" type="static" programID="0" offset="0">
        <phase duration="82" state="G" />