<net xmlns:xsi="http://www.w3.org/2001/XMLSchema-instance" version="1.9" junctionCornerDetail="5" limitTurnSpeed="5.50" xsi:noNamespaceSchemaLocation="http://sumo.dlr.de/xsd/net_file.xsd">

    <location netOffset="634.74,620.35" convBoundary="0.00,0.00,1260.36,1216.36" origBoundary="-634.74,-620.35,625.62,596.02" projParameter="!" />

    <edge id=":A_0" function="internal">
        <lane id=":A_0_0" index="0" speed="7.33" length="11.73" shape="629.94,928.75,-3.36 629.59,924.90,-3.36 628.54,922.15,-3.36 626.79,920.50,-3.36 624.34,919.95,-3.36" />
    </edge>
    <edge id=":A_1" function="internal">
        <lane id=":A_1_0" index="0" speed="11.18" length="20.80" shape="629.94,928.75,-3.36 629.94,907.95,-3.24" />
        <lane id=":A_1_1" index="1" speed="11.18" length="20.80" shape="633.14,928.75,-3.36 633.14,907.95,-3.24" />
    </edge>
    <edge id=":A_3" function="internal">
        <lane id=":A_3_0" index="0" speed="8.67" length="5.56" shape="633.14,928.75,-3.36 633.69,923.50,-3.36 633.81,923.25,-3.36" />
    </edge>
    <edge id=":A_4" function="internal">
        <lane id=":A_4_0" index="0" speed="3.65" length="1.44" shape="633.14,928.75,-3.36 633.94,927.55,-3.36" />
    </edge>
    <edge id=":A_17" function="internal">
        <lane id=":A_17_0" index="0" speed="8.67" length="11.29" shape="633.81,923.25,-3.36 635.34,919.75,-3.36 638.09,917.50,-3.36 641.94,916.75,-3.36" />
    </edge>
    <edge id=":A_18" function="internal">
        <lane id=":A_18_0" index="0" speed="3.65" length="3.23" shape="633.94,927.55,-3.36 634.74,927.15,-3.36 635.54,927.55,-3.36 636.34,928.75,-3.36" />
    </edge>
    <edge id=":A_5" function="internal">
        <lane id=":A_5_0" index="0" speed="6.51" length="9.03" shape="641.94,923.15,-3.36 639.49,923.50,-3.36 637.74,924.55,-3.36 636.69,926.30,-3.36 636.34,928.75,-3.36" />
    </edge>
    <edge id=":A_6" function="internal">
        <lane id=":A_6_0" index="0" speed="11.18" length="17.95" shape="641.94,923.15,-3.36 636.12,922.65,-3.36 631.67,921.55,-3.36 627.95,920.45,-3.36 624.34,919.95,-3.36" />
    </edge>
    <edge id=":A_7" function="internal">
        <lane id=":A_7_0" index="0" speed="8.67" length="4.68" shape="641.94,919.95,-3.36 638.09,919.20,-3.33 637.51,918.72,-3.33" />
    </edge>
    <edge id=":A_8" function="internal">
        <lane id=":A_8_0" index="0" speed="3.65" length="1.44" shape="641.94,919.95,-3.36 640.74,919.15,-3.36" />
    </edge>
    <edge id=":A_19" function="internal">
        <lane id=":A_19_0" index="0" speed="8.67" length="12.17" shape="637.51,918.72,-3.33 635.34,916.95,-3.31 633.69,913.20,-3.28 633.14,907.95,-3.24" />
    </edge>
    <edge id=":A_20" function="internal">
        <lane id=":A_20_0" index="0" speed="3.65" length="3.23" shape="640.74,919.15,-3.36 640.34,918.35,-3.36 640.74,917.55,-3.36 641.94,916.75,-3.36" />
    </edge>
    <edge id=":A_9" function="internal">
        <lane id=":A_9_0" index="0" speed="7.33" length="11.73" shape="636.34,907.95,-3.24 636.69,911.80,-3.28 637.74,914.55,-3.31 639.49,916.20,-3.34 641.94,916.75,-3.36" />
    </edge>
    <edge id=":A_10" function="internal">
        <lane id=":A_10_0" index="0" speed="11.18" length="20.80" shape="636.34,907.95,-3.24 636.34,928.75,-3.36" />
    </edge>
    <edge id=":A_11" function="internal">
        <lane id=":A_11_0" index="0" speed="9.26" length="5.01" shape="636.34,907.95,-3.24 635.64,912.92,-3.27" />
    </edge>
    <edge id=":A_12" function="internal">
        <lane id=":A_12_0" index="0" speed="3.65" length="1.44" shape="636.34,907.95,-3.24 635.54,909.15,-3.24" />
    </edge>
    <edge id=":A_21" function="internal">
        <lane id=":A_21_0" index="0" speed="9.26" length="14.34" shape="635.64,912.92,-3.27 635.59,913.20,-3.28 633.34,916.95,-3.30 629.59,919.20,-3.33 624.34,919.95,-3.36" />
    </edge>
    <edge id=":A_22" function="internal">
        <lane id=":A_22_0" index="0" speed="3.65" length="3.23" shape="635.54,909.15,-3.24 634.74,909.55,-3.24 633.94,909.15,-3.24 633.14,907.95,-3.24" />
    </edge>
    <edge id=":A_13" function="internal">
        <lane id=":A_13_0" index="0" speed="6.51" length="9.03" shape="624.34,913.55,-3.36 626.79,913.20,-3.33 628.54,912.15,-3.30 629.59,910.40,-3.28 629.94,907.95,-3.24" />
    </edge>
    <edge id=":A_14" function="internal">
        <lane id=":A_14_0" index="0" speed="11.18" length="17.95" shape="624.34,913.55,-3.36 630.16,914.05,-3.36 634.62,915.15,-3.36 638.34,916.25,-3.36 641.94,916.75,-3.36" />
    </edge>
    <edge id=":A_15" function="internal">
        <lane id=":A_15_0" index="0" speed="9.26" length="8.24" shape="624.34,916.75,-3.36 629.59,917.50,-3.36 632.11,919.01,-3.36" />
    </edge>
    <edge id=":A_16" function="internal">
        <lane id=":A_16_0" index="0" speed="3.65" length="1.44" shape="624.34,916.75,-3.36 625.54,917.55,-3.36" />
    </edge>
    <edge id=":A_23" function="internal">
        <lane id=":A_23_0" index="0" speed="9.26" length="11.12" shape="632.11,919.01,-3.36 633.34,919.75,-3.36 635.59,923.50,-3.36 636.34,928.75,-3.36" />
    </edge>
    <edge id=":A_24" function="internal">
        <lane id=":A_24_0" index="0" speed="3.65" length="3.23" shape="625.54,917.55,-3.36 625.94,918.35,-3.36 625.54,919.15,-3.36 624.34,919.95,-3.36" />
    </edge>
    <edge id=":AA_0" function="internal">
        <lane id=":AA_0_0" index="0" speed="3.65" length="4.67" shape="336.74,919.95,-3.36 335.54,919.15,-3.36 335.14,918.35,-3.36 335.54,917.55,-3.36 336.74,916.75,-3.36" />
    </edge>
    <edge id=":AB_0" function="internal">
        <lane id=":AB_0_0" index="0" speed="3.65" length="4.67" shape="636.34,1216.36,-3.36 635.54,1217.56,-3.36 634.74,1217.96,-3.36 633.94,1217.56,-3.36 633.14,1216.36,-3.36" />
    </edge>
    <edge id=":AC_0" function="internal">
        <lane id=":AC_0_0" index="0" speed="3.65" length="4.67" shape="932.75,916.75,-3.36 933.95,917.55,-3.36 934.35,918.35,-3.36 933.95,919.15,-3.36 932.75,919.95,-3.36" />
    </edge>
    <edge id=":B_0" function="internal">
        <lane id=":B_0_0" index="0" speed="6.51" length="9.03" shape="942.75,630.75,-4.86 942.40,628.30,-4.82 941.35,626.55,-4.78 939.60,625.50,-4.74 937.15,625.15,-4.70" />
    </edge>
    <edge id=":B_1" function="internal">
        <lane id=":B_1_0" index="0" speed="8.94" length="17.95" shape="942.75,630.75,-4.86 943.25,624.93,-4.86 944.35,620.47,-4.86 945.45,616.75,-4.86 945.95,613.15,-4.86" />
    </edge>
    <edge id=":B_2" function="internal">
        <lane id=":B_2_0" index="0" speed="8.94" length="8.24" shape="945.95,630.75,-4.86 946.70,625.50,-4.86 948.21,622.98,-4.86" />
    </edge>
    <edge id=":B_3" function="internal">
        <lane id=":B_3_0" index="0" speed="3.65" length="1.44" shape="945.95,630.75,-4.86 946.75,629.55,-4.86" />
    </edge>
    <edge id=":B_17" function="internal">
        <lane id=":B_17_0" index="0" speed="8.94" length="11.12" shape="948.21,622.98,-4.86 948.95,621.75,-4.86 952.70,619.50,-4.86 957.95,618.75,-4.86" />
    </edge>
    <edge id=":B_18" function="internal">
        <lane id=":B_18_0" index="0" speed="3.65" length="3.23" shape="946.75,629.55,-4.86 947.55,629.15,-4.86 948.35,629.55,-4.86 949.15,630.75,-4.86" />
    </edge>
    <edge id=":B_4" function="internal">
        <lane id=":B_4_0" index="0" speed="7.33" length="11.73" shape="957.95,625.15,-4.86 954.10,625.50,-4.86 951.35,626.55,-4.86 949.70,628.30,-4.86 949.15,630.75,-4.86" />
    </edge>
    <edge id=":B_5" function="internal">
        <lane id=":B_5_0" index="0" speed="8.94" length="20.80" shape="957.95,625.15,-4.86 937.15,625.15,-4.70" />
        <lane id=":B_5_1" index="1" speed="8.94" length="20.80" shape="957.95,621.95,-4.86 937.15,621.95,-4.70" />
    </edge>
    <edge id=":B_7" function="internal">
        <lane id=":B_7_0" index="0" speed="8.67" length="5.56" shape="957.95,621.95,-4.86 952.70,621.40,-4.86 952.45,621.28,-4.86" />
    </edge>
    <edge id=":B_8" function="internal">
        <lane id=":B_8_0" index="0" speed="3.65" length="1.44" shape="957.95,621.95,-4.86 956.75,621.15,-4.86" />
    </edge>
    <edge id=":B_19" function="internal">
        <lane id=":B_19_0" index="0" speed="8.67" length="11.29" shape="952.45,621.28,-4.86 948.95,619.75,-4.86 946.70,617.00,-4.86 945.95,613.15,-4.86" />
    </edge>
    <edge id=":B_20" function="internal">
        <lane id=":B_20_0" index="0" speed="3.65" length="3.23" shape="956.75,621.15,-4.86 956.35,620.35,-4.86 956.75,619.55,-4.86 957.95,618.75,-4.86" />
    </edge>
    <edge id=":B_9" function="internal">
        <lane id=":B_9_0" index="0" speed="6.51" length="9.03" shape="952.35,613.15,-4.86 952.70,615.60,-4.86 953.75,617.35,-4.86 955.50,618.40,-4.86 957.95,618.75,-4.86" />
    </edge>
    <edge id=":B_10" function="internal">
        <lane id=":B_10_0" index="0" speed="8.94" length="17.95" shape="952.35,613.15,-4.86 951.85,618.97,-4.86 950.75,623.43,-4.86 949.65,627.14,-4.86 949.15,630.75,-4.86" />
    </edge>
    <edge id=":B_11" function="internal">
        <lane id=":B_11_0" index="0" speed="8.67" length="4.68" shape="949.15,613.15,-4.86 948.40,617.00,-4.82 947.92,617.58,-4.82" />
    </edge>
    <edge id=":B_12" function="internal">
        <lane id=":B_12_0" index="0" speed="3.65" length="1.44" shape="949.15,613.15,-4.86 948.35,614.35,-4.86" />
    </edge>
    <edge id=":B_21" function="internal">
        <lane id=":B_21_0" index="0" speed="8.67" length="12.17" shape="947.92,617.58,-4.82 946.15,619.75,-4.79 942.40,621.40,-4.75 937.15,621.95,-4.70" />
    </edge>
    <edge id=":B_22" function="internal">
        <lane id=":B_22_0" index="0" speed="3.65" length="3.23" shape="948.35,614.35,-4.86 947.55,614.75,-4.86 946.75,614.35,-4.86 945.95,613.15,-4.86" />
    </edge>
    <edge id=":B_13" function="internal">
        <lane id=":B_13_0" index="0" speed="7.33" length="11.73" shape="937.15,618.75,-4.70 941.00,618.40,-4.75 943.75,617.35,-4.79 945.40,615.60,-4.83 945.95,613.15,-4.86" />
    </edge>
    <edge id=":B_14" function="internal">
        <lane id=":B_14_0" index="0" speed="8.94" length="20.80" shape="937.15,618.75,-4.70 957.95,618.75,-4.86" />
    </edge>
    <edge id=":B_15" function="internal">
        <lane id=":B_15_0" index="0" speed="8.94" length="5.01" shape="937.15,618.75,-4.70 942.12,619.46,-4.74" />
    </edge>
    <edge id=":B_16" function="internal">
        <lane id=":B_16_0" index="0" speed="3.65" length="1.44" shape="937.15,618.75,-4.70 938.35,619.55,-4.70" />
    </edge>
    <edge id=":B_23" function="internal">
        <lane id=":B_23_0" index="0" speed="8.94" length="14.34" shape="942.12,619.46,-4.74 942.40,619.50,-4.74 946.15,621.75,-4.78 948.40,625.50,-4.82 949.15,630.75,-4.86" />
    </edge>
    <edge id=":B_24" function="internal">
        <lane id=":B_24_0" index="0" speed="3.65" length="3.23" shape="938.35,619.55,-4.70 938.75,620.35,-4.70 938.35,621.15,-4.70 937.15,621.95,-4.70" />
    </edge>
    <edge id=":BA_0" function="internal">
        <lane id=":BA_0_0" index="0" speed="3.65" length="4.67" shape="949.15,933.16,-4.86 948.35,934.36,-4.86 947.55,934.76,-4.86 946.75,934.36,-4.86 945.95,933.16,-4.86" />
    </edge>
    <edge id=":BB_0" function="internal">
        <lane id=":BB_0_0" index="0" speed="3.65" length="4.67" shape="1260.36,618.75,-4.86 1261.56,619.55,-4.86 1261.96,620.35,-4.86 1261.56,621.15,-4.86 1260.36,621.95,-4.86" />
    </edge>
    <edge id=":BC_0" function="internal">
        <lane id=":BC_0_0" index="0" speed="3.65" length="4.67" shape="945.95,307.54,-4.86 946.75,306.34,-4.86 947.55,305.94,-4.86 948.35,306.34,-4.86 949.15,307.54,-4.86" />
    </edge>
    <edge id=":C_0" function="internal">
        <lane id=":C_0_0" index="0" speed="7.33" length="11.73" shape="633.14,320.57,-5.48 632.79,316.72,-5.54 631.74,313.97,-5.59 629.99,312.32,-5.63 627.54,311.77,-5.67" />
    </edge>
    <edge id=":C_1" function="internal">
        <lane id=":C_1_0" index="0" speed="11.18" length="20.80" shape="633.14,320.57,-5.48 633.14,299.77,-5.67" />
    </edge>
    <edge id=":C_2" function="internal">
        <lane id=":C_2_0" index="0" speed="9.26" length="5.01" shape="633.14,320.57,-5.48 633.85,315.61,-5.53" />
    </edge>
    <edge id=":C_3" function="internal">
        <lane id=":C_3_0" index="0" speed="3.65" length="1.44" shape="633.14,320.57,-5.48 633.94,319.37,-5.48" />
    </edge>
    <edge id=":C_17" function="internal">
        <lane id=":C_17_0" index="0" speed="9.26" length="14.34" shape="633.85,315.61,-5.53 633.89,315.32,-5.53 636.14,311.57,-5.58 639.89,309.32,-5.62 645.14,308.57,-5.67" />
    </edge>
    <edge id=":C_18" function="internal">
        <lane id=":C_18_0" index="0" speed="3.65" length="3.23" shape="633.94,319.37,-5.48 634.74,318.97,-5.48 635.54,319.37,-5.48 636.34,320.57,-5.48" />
    </edge>
    <edge id=":C_4" function="internal">
        <lane id=":C_4_0" index="0" speed="6.51" length="9.03" shape="645.14,314.97,-5.67 642.69,315.32,-5.62 640.94,316.37,-5.58 639.89,318.12,-5.53 639.54,320.57,-5.48" />
    </edge>
    <edge id=":C_5" function="internal">
        <lane id=":C_5_0" index="0" speed="11.18" length="17.95" shape="645.14,314.97,-5.67 639.32,314.47,-5.67 634.87,313.37,-5.67 631.15,312.27,-5.67 627.54,311.77,-5.67" />
    </edge>
    <edge id=":C_6" function="internal">
        <lane id=":C_6_0" index="0" speed="9.26" length="8.24" shape="645.14,311.77,-5.67 639.89,311.02,-5.67 637.38,309.51,-5.67" />
    </edge>
    <edge id=":C_7" function="internal">
        <lane id=":C_7_0" index="0" speed="3.65" length="1.44" shape="645.14,311.77,-5.67 643.94,310.97,-5.67" />
    </edge>
    <edge id=":C_19" function="internal">
        <lane id=":C_19_0" index="0" speed="9.26" length="11.12" shape="637.38,309.51,-5.67 636.14,308.77,-5.67 633.89,305.02,-5.67 633.14,299.77,-5.67" />
    </edge>
    <edge id=":C_20" function="internal">
        <lane id=":C_20_0" index="0" speed="3.65" length="3.23" shape="643.94,310.97,-5.67 643.54,310.17,-5.67 643.94,309.37,-5.67 645.14,308.57,-5.67" />
    </edge>
    <edge id=":C_8" function="internal">
        <lane id=":C_8_0" index="0" speed="7.33" length="11.73" shape="639.54,299.77,-5.67 639.89,303.62,-5.67 640.94,306.37,-5.67 642.69,308.02,-5.67 645.14,308.57,-5.67" />
    </edge>
    <edge id=":C_9" function="internal">
        <lane id=":C_9_0" index="0" speed="11.18" length="20.80" shape="639.54,299.77,-5.67 639.54,320.57,-5.48" />
        <lane id=":C_9_1" index="1" speed="11.18" length="20.80" shape="636.34,299.77,-5.67 636.34,320.57,-5.48" />
    </edge>
    <edge id=":C_11" function="internal">
        <lane id=":C_11_0" index="0" speed="8.67" length="5.56" shape="636.34,299.77,-5.67 635.79,305.02,-5.67 635.68,305.28,-5.67" />
    </edge>
    <edge id=":C_12" function="internal">
        <lane id=":C_12_0" index="0" speed="3.65" length="1.44" shape="636.34,299.77,-5.67 635.54,300.97,-5.67" />
    </edge>
    <edge id=":C_21" function="internal">
        <lane id=":C_21_0" index="0" speed="8.67" length="11.29" shape="635.68,305.28,-5.67 634.14,308.77,-5.67 631.39,311.02,-5.67 627.54,311.77,-5.67" />
    </edge>
    <edge id=":C_22" function="internal">
        <lane id=":C_22_0" index="0" speed="3.65" length="3.23" shape="635.54,300.97,-5.67 634.74,301.37,-5.67 633.94,300.97,-5.67 633.14,299.77,-5.67" />
    </edge>
    <edge id=":C_13" function="internal">
        <lane id=":C_13_0" index="0" speed="6.51" length="9.03" shape="627.54,305.37,-5.67 629.99,305.02,-5.67 631.74,303.97,-5.67 632.79,302.22,-5.67 633.14,299.77,-5.67" />
    </edge>
    <edge id=":C_14" function="internal">
        <lane id=":C_14_0" index="0" speed="11.18" length="17.95" shape="627.54,305.37,-5.67 633.36,305.87,-5.67 637.82,306.97,-5.67 641.54,308.07,-5.67 645.14,308.57,-5.67" />
    </edge>
    <edge id=":C_15" function="internal">
        <lane id=":C_15_0" index="0" speed="8.67" length="4.68" shape="627.54,308.57,-5.67 631.39,309.32,-5.63 631.98,309.80,-5.62" />
    </edge>
    <edge id=":C_16" function="internal">
        <lane id=":C_16_0" index="0" speed="3.65" length="1.44" shape="627.54,308.57,-5.67 628.74,309.37,-5.67" />
    </edge>
    <edge id=":C_23" function="internal">
        <lane id=":C_23_0" index="0" speed="8.67" length="12.17" shape="631.98,309.80,-5.62 634.14,311.57,-5.59 635.79,315.32,-5.54 636.34,320.57,-5.48" />
    </edge>
    <edge id=":C_24" function="internal">
        <lane id=":C_24_0" index="0" speed="3.65" length="3.23" shape="628.74,309.37,-5.67 629.14,310.17,-5.67 628.74,310.97,-5.67 627.54,311.77,-5.67" />
    </edge>
    <edge id=":CA_0" function="internal">
        <lane id=":CA_0_0" index="0" speed="3.65" length="4.67" shape="944.92,308.57,-5.67 946.12,309.37,-5.67 946.52,310.17,-5.67 946.12,310.97,-5.67 944.92,311.77,-5.67" />
    </edge>
    <edge id=":CB_0" function="internal">
        <lane id=":CB_0_0" index="0" speed="3.65" length="4.67" shape="633.14,0.00,-5.67 633.94,-1.20,-5.67 634.74,-1.60,-5.67 635.54,-1.20,-5.67 636.34,0.00,-5.67" />
    </edge>
    <edge id=":CC_0" function="internal">
        <lane id=":CC_0_0" index="0" speed="3.65" length="4.67" shape="324.57,311.77,-5.67 323.37,310.97,-5.67 322.97,310.17,-5.67 323.37,309.37,-5.67 324.57,308.57,-5.67" />
    </edge>
    <edge id=":D_0" function="internal">
        <lane id=":D_0_0" index="0" speed="6.51" length="9.03" shape="312.57,627.55,5.51 312.22,625.10,5.51 311.17,623.35,5.51 309.42,622.30,5.51 306.97,621.95,5.51" />
    </edge>
    <edge id=":D_1" function="internal">
        <lane id=":D_1_0" index="0" speed="8.94" length="17.95" shape="312.57,627.55,5.51 313.07,621.73,5.51 314.17,617.27,5.51 315.27,613.55,5.51 315.77,609.95,5.51" />
    </edge>
    <edge id=":D_2" function="internal">
        <lane id=":D_2_0" index="0" speed="8.67" length="4.68" shape="315.77,627.55,5.51 316.52,623.70,5.47 317.00,623.11,5.46" />
    </edge>
    <edge id=":D_3" function="internal">
        <lane id=":D_3_0" index="0" speed="3.65" length="1.44" shape="315.77,627.55,5.51 316.57,626.35,5.51" />
    </edge>
    <edge id=":D_17" function="internal">
        <lane id=":D_17_0" index="0" speed="8.67" length="12.17" shape="317.00,623.11,5.46 318.77,620.95,5.43 322.52,619.30,5.39 327.77,618.75,5.33" />
    </edge>
    <edge id=":D_18" function="internal">
        <lane id=":D_18_0" index="0" speed="3.65" length="3.23" shape="316.57,626.35,5.51 317.37,625.95,5.51 318.17,626.35,5.51 318.97,627.55,5.51" />
    </edge>
    <edge id=":D_4" function="internal">
        <lane id=":D_4_0" index="0" speed="7.33" length="11.73" shape="327.77,621.95,5.33 323.92,622.30,5.39 321.17,623.35,5.44 319.52,625.10,5.47 318.97,627.55,5.51" />
    </edge>
    <edge id=":D_5" function="internal">
        <lane id=":D_5_0" index="0" speed="8.94" length="20.80" shape="327.77,621.95,5.33 306.97,621.95,5.51" />
    </edge>
    <edge id=":D_6" function="internal">
        <lane id=":D_6_0" index="0" speed="8.94" length="5.01" shape="327.77,621.95,5.33 322.81,621.24,5.38" />
    </edge>
    <edge id=":D_7" function="internal">
        <lane id=":D_7_0" index="0" speed="3.65" length="1.44" shape="327.77,621.95,5.33 326.57,621.15,5.33" />
    </edge>
    <edge id=":D_19" function="internal">
        <lane id=":D_19_0" index="0" speed="8.94" length="14.34" shape="322.81,621.24,5.38 322.52,621.20,5.38 318.77,618.95,5.42 316.52,615.20,5.46 315.77,609.95,5.51" />
    </edge>
    <edge id=":D_20" function="internal">
        <lane id=":D_20_0" index="0" speed="3.65" length="3.23" shape="326.57,621.15,5.33 326.17,620.35,5.33 326.57,619.55,5.33 327.77,618.75,5.33" />
    </edge>
    <edge id=":D_8" function="internal">
        <lane id=":D_8_0" index="0" speed="6.51" length="9.03" shape="322.17,609.95,5.51 322.52,612.40,5.46 323.57,614.15,5.42 325.32,615.20,5.38 327.77,615.55,5.33" />
    </edge>
    <edge id=":D_9" function="internal">
        <lane id=":D_9_0" index="0" speed="8.94" length="17.95" shape="322.17,609.95,5.51 321.67,615.77,5.51 320.57,620.23,5.51 319.47,623.94,5.51 318.97,627.55,5.51" />
    </edge>
    <edge id=":D_10" function="internal">
        <lane id=":D_10_0" index="0" speed="8.94" length="8.24" shape="318.97,609.95,5.51 318.22,615.20,5.51 316.71,617.71,5.51" />
    </edge>
    <edge id=":D_11" function="internal">
        <lane id=":D_11_0" index="0" speed="3.65" length="1.44" shape="318.97,609.95,5.51 318.17,611.15,5.51" />
    </edge>
    <edge id=":D_21" function="internal">
        <lane id=":D_21_0" index="0" speed="8.94" length="11.12" shape="316.71,617.71,5.51 315.97,618.95,5.51 312.22,621.20,5.51 306.97,621.95,5.51" />
    </edge>
    <edge id=":D_22" function="internal">
        <lane id=":D_22_0" index="0" speed="3.65" length="3.23" shape="318.17,611.15,5.51 317.37,611.55,5.51 316.57,611.15,5.51 315.77,609.95,5.51" />
    </edge>
    <edge id=":D_12" function="internal">
        <lane id=":D_12_0" index="0" speed="7.33" length="11.73" shape="306.97,615.55,5.51 310.82,615.20,5.51 313.57,614.15,5.51 315.22,612.40,5.51 315.77,609.95,5.51" />
    </edge>
    <edge id=":D_13" function="internal">
        <lane id=":D_13_0" index="0" speed="8.94" length="20.80" shape="306.97,615.55,5.51 327.77,615.55,5.33" />
        <lane id=":D_13_1" index="1" speed="8.94" length="20.80" shape="306.97,618.75,5.51 327.77,618.75,5.33" />
    </edge>
    <edge id=":D_15" function="internal">
        <lane id=":D_15_0" index="0" speed="8.67" length="5.56" shape="306.97,618.75,5.51 312.22,619.30,5.51 312.48,619.41,5.51" />
    </edge>
    <edge id=":D_16" function="internal">
        <lane id=":D_16_0" index="0" speed="3.65" length="1.44" shape="306.97,618.75,5.51 308.17,619.55,5.51" />
    </edge>
    <edge id=":D_23" function="internal">
        <lane id=":D_23_0" index="0" speed="8.67" length="11.29" shape="312.48,619.41,5.51 315.97,620.95,5.51 318.22,623.70,5.51 318.97,627.55,5.51" />
    </edge>
    <edge id=":D_24" function="internal">
        <lane id=":D_24_0" index="0" speed="3.65" length="3.23" shape="308.17,619.55,5.51 308.57,620.35,5.51 308.17,621.15,5.51 306.97,621.95,5.51" />
    </edge>
    <edge id=":DA_0" function="internal">
        <lane id=":DA_0_0" index="0" speed="3.65" length="4.67" shape="315.77,302.97,5.51 316.57,301.77,5.51 317.37,301.37,5.51 318.17,301.77,5.51 318.97,302.97,5.51" />
    </edge>
    <edge id=":DB_0" function="internal">
        <lane id=":DB_0_0" index="0" speed="3.65" length="4.67" shape="-0.00,621.95,5.51 -1.20,621.15,5.51 -1.60,620.35,5.51 -1.20,619.55,5.51 -0.00,618.75,5.51" />
    </edge>
    <edge id=":DC_0" function="internal">
        <lane id=":DC_0_0" index="0" speed="3.65" length="4.67" shape="318.97,937.72,5.51 318.17,938.92,5.51 317.37,939.32,5.51 316.57,938.92,5.51 315.77,937.72,5.51" />
    </edge>
    <edge id=":TL_0" function="internal">
        <lane id=":TL_0_0" index="0" speed="7.33" length="11.73" shape="629.94,630.75,-0.12 629.59,626.90,-0.02 628.54,624.15,0.06 626.79,622.50,0.12 624.34,621.95,0.18" />
    </edge>
    <edge id=":TL_1" function="internal">
        <lane id=":TL_1_0" index="0" speed="11.18" length="21.09" shape="629.94,630.75,-0.12 630.44,623.98,-0.14 631.54,618.47,-0.16 632.64,613.90,-0.18 633.14,609.95,-0.19" />
    </edge>
    <edge id=":TL_2" function="internal">
        <lane id=":TL_2_0" index="0" speed="9.26" length="7.32" shape="633.14,630.75,-0.12 633.89,625.50,-0.13 634.93,623.77,-0.13" />
    </edge>
    <edge id=":TL_12" function="internal">
        <lane id=":TL_12_0" index="0" speed="9.26" length="12.03" shape="634.93,623.77,-0.13 636.14,621.75,-0.14 639.89,619.50,-0.15 645.14,618.75,-0.16" />
    </edge>
    <edge id=":TL_3" function="internal">
        <lane id=":TL_3_0" index="0" speed="7.33" length="11.73" shape="645.14,625.15,-0.16 641.29,625.50,-0.15 638.54,626.55,-0.14 636.89,628.30,-0.13 636.34,630.75,-0.12" />
    </edge>
    <edge id=":TL_4" function="internal">
        <lane id=":TL_4_0" index="0" speed="8.94" length="21.09" shape="645.14,625.15,-0.16 638.38,624.65,-0.05 632.87,623.55,0.04 628.30,622.45,0.12 624.34,621.95,0.18" />
    </edge>
    <edge id=":TL_5" function="internal">
        <lane id=":TL_5_0" index="0" speed="9.26" length="7.32" shape="645.14,621.95,-0.16 639.89,621.20,-0.17 638.17,620.16,-0.17" />
    </edge>
    <edge id=":TL_13" function="internal">
        <lane id=":TL_13_0" index="0" speed="9.26" length="12.03" shape="638.17,620.16,-0.17 636.14,618.95,-0.18 633.89,615.20,-0.18 633.14,609.95,-0.19" />
    </edge>
    <edge id=":TL_6" function="internal">
        <lane id=":TL_6_0" index="0" speed="7.33" length="11.73" shape="639.54,609.95,-0.19 639.89,613.80,-0.18 640.94,616.55,-0.17 642.69,618.20,-0.17 645.14,618.75,-0.16" />
    </edge>
    <edge id=":TL_7" function="internal">
        <lane id=":TL_7_0" index="0" speed="11.18" length="21.09" shape="639.54,609.95,-0.19 639.04,616.71,-0.17 637.94,622.22,-0.15 636.84,626.79,-0.13 636.34,630.75,-0.12" />
    </edge>
    <edge id=":TL_8" function="internal">
        <lane id=":TL_8_0" index="0" speed="9.26" length="7.32" shape="636.34,609.95,-0.19 635.59,615.20,-0.09 634.56,616.92,-0.05" />
    </edge>
    <edge id=":TL_14" function="internal">
        <lane id=":TL_14_0" index="0" speed="9.26" length="12.04" shape="634.56,616.92,-0.05 633.34,618.95,-0.00 629.59,621.20,0.08 624.34,621.95,0.18" />
    </edge>
    <edge id=":TL_9" function="internal">
        <lane id=":TL_9_0" index="0" speed="7.33" length="11.73" shape="624.34,615.55,0.18 628.19,615.20,0.06 630.94,614.15,-0.03 632.59,612.40,-0.11 633.14,609.95,-0.19" />
    </edge>
    <edge id=":TL_10" function="internal">
        <lane id=":TL_10_0" index="0" speed="8.94" length="21.09" shape="624.34,615.55,0.18 631.11,616.05,0.07 636.62,617.15,-0.02 641.19,618.25,-0.10 645.14,618.75,-0.16" />
    </edge>
    <edge id=":TL_11" function="internal">
        <lane id=":TL_11_0" index="0" speed="9.26" length="7.32" shape="624.34,618.75,0.18 629.59,619.50,0.10 631.32,620.53,0.07" />
    </edge>
    <edge id=":TL_15" function="internal">
        <lane id=":TL_15_0" index="0" speed="9.26" length="12.04" shape="631.32,620.53,0.07 633.34,621.75,0.03 635.59,625.50,-0.04 636.34,630.75,-0.12" />
    </edge>

    <edge id="A2AA" from="A" to="AA" priority="-1">
        <lane id="A2AA_0" index="0" speed="11.18" length="287.61" shape="624.34,919.95,-3.36 336.74,919.95,-3.36" />
    </edge>
    <edge id="A2AB" from="A" to="AB" priority="-1">
        <lane id="A2AB_0" index="0" speed="11.18" length="287.61" shape="636.34,928.75,-3.36 636.34,1216.36,-3.36" />
    </edge>
    <edge id="A2AC" from="A" to="AC" priority="-1">
        <lane id="A2AC_0" index="0" speed="11.18" length="290.81" shape="641.94,916.75,-3.36 932.75,916.75,-3.36" />
    </edge>
    <edge id="A2TL" from="A" to="TL" priority="-1">
        <lane id="A2TL_0" index="0" speed="11.18" length="277.23" shape="629.94,907.95,-3.24 629.94,630.75,-0.12" />
        <lane id="A2TL_1" index="1" speed="11.18" length="277.23" shape="633.14,907.95,-3.24 633.14,630.75,-0.12" />
    </edge>
    <edge id="AA2A" from="AA" to="A" priority="-1">
        <lane id="AA2A_0" index="0" speed="11.18" length="287.61" shape="336.74,913.55,-3.36 624.34,913.55,-3.36" />
        <lane id="AA2A_1" index="1" speed="11.18" length="287.61" shape="336.74,916.75,-3.36 624.34,916.75,-3.36" />
    </edge>
    <edge id="AB2A" from="AB" to="A" priority="-1">
        <lane id="AB2A_0" index="0" speed="11.18" length="287.61" shape="629.94,1216.36,-3.36 629.94,928.75,-3.36" />
        <lane id="AB2A_1" index="1" speed="11.18" length="287.61" shape="633.14,1216.36,-3.36 633.14,928.75,-3.36" />
    </edge>
    <edge id="AC2A" from="AC" to="A" priority="-1">
        <lane id="AC2A_0" index="0" speed="11.18" length="290.81" shape="932.75,923.15,-3.36 641.94,923.15,-3.36" />
        <lane id="AC2A_1" index="1" speed="11.18" length="290.81" shape="932.75,919.95,-3.36 641.94,919.95,-3.36" />
    </edge>
    <edge id="B2BA" from="B" to="BA" priority="-1">
        <lane id="B2BA_0" index="0" speed="8.94" length="302.41" shape="949.15,630.75,-4.86 949.15,933.16,-4.86" />
    </edge>
    <edge id="B2BB" from="B" to="BB" priority="-1">
        <lane id="B2BB_0" index="0" speed="8.94" length="302.41" shape="957.95,618.75,-4.86 1260.36,618.75,-4.86" />
    </edge>
    <edge id="B2BC" from="B" to="BC" priority="-1">
        <lane id="B2BC_0" index="0" speed="8.94" length="305.61" shape="945.95,613.15,-4.86 945.95,307.54,-4.86" />
    </edge>
    <edge id="B2TL" from="B" to="TL" priority="-1">
        <lane id="B2TL_0" index="0" speed="8.94" length="292.04" shape="937.15,625.15,-4.70 645.14,625.15,-0.16" />
        <lane id="B2TL_1" index="1" speed="8.94" length="292.04" shape="937.15,621.95,-4.70 645.14,621.95,-0.16" />
    </edge>
    <edge id="BA2B" from="BA" to="B" priority="-1">
        <lane id="BA2B_0" index="0" speed="8.94" length="302.41" shape="942.75,933.16,-4.86 942.75,630.75,-4.86" />
        <lane id="BA2B_1" index="1" speed="8.94" length="302.41" shape="945.95,933.16,-4.86 945.95,630.75,-4.86" />
    </edge>
    <edge id="BB2B" from="BB" to="B" priority="-1">
        <lane id="BB2B_0" index="0" speed="8.94" length="302.41" shape="1260.36,625.15,-4.86 957.95,625.15,-4.86" />
        <lane id="BB2B_1" index="1" speed="8.94" length="302.41" shape="1260.36,621.95,-4.86 957.95,621.95,-4.86" />
    </edge>
    <edge id="BC2B" from="BC" to="B" priority="-1">
        <lane id="BC2B_0" index="0" speed="8.94" length="305.61" shape="952.35,307.54,-4.86 952.35,613.15,-4.86" />
        <lane id="BC2B_1" index="1" speed="8.94" length="305.61" shape="949.15,307.54,-4.86 949.15,613.15,-4.86" />
    </edge>
    <edge id="C2CA" from="C" to="CA" priority="-1">
        <lane id="C2CA_0" index="0" speed="11.18" length="299.77" shape="645.14,308.57,-5.67 944.92,308.57,-5.67" />
    </edge>
    <edge id="C2CB" from="C" to="CB" priority="-1">
        <lane id="C2CB_0" index="0" speed="11.18" length="299.77" shape="633.14,299.77,-5.67 633.14,0.00,-5.67" />
    </edge>
    <edge id="C2CC" from="C" to="CC" priority="-1">