<net xmlns:xsi="http://www.w3.org/2001/XMLSchema-instance" version="1.9" junctionCornerDetail="5" limitTurnSpeed="5.50" xsi:noNamespaceSchemaLocation="http://sumo.dlr.de/xsd/net_file.xsd">

    <location netOffset="611.60,604.61" convBoundary="0.00,0.00,1201.59,1211.26" origBoundary="-611.60,-604.61,590.00,606.65" projParameter="!" />

    <edge id=":A_0" function="internal">
        <lane id=":A_0_0" index="0" speed="6.51" length="9.03" shape="603.60,921.53,-2.13 603.25,919.08,-2.13 602.20,917.33,-2.13 600.45,916.28,-2.13 598.00,915.93,-2.13" />
    </edge>
    <edge id=":A_1" function="internal">
        <lane id=":A_1_0" index="0" speed="13.41" length="27.20" shape="603.60,921.53,-2.13 603.60,894.33,-2.03" />
        <lane id=":A_1_1" index="1" speed="13.41" length="27.20" shape="606.80,921.53,-2.13 606.80,894.33,-2.03" />
        <lane id=":A_1_2" index="2" speed="13.41" length="27.20" shape="610.00,921.53,-2.13 610.00,894.33,-2.03" />
    </edge>
    <edge id=":A_4" function="internal">
        <lane id=":A_4_0" index="0" speed="10.36" length="5.01" shape="610.00,921.53,-2.13 610.71,916.57,-2.13" />
    </edge>
    <edge id=":A_5" function="internal">
        <lane id=":A_5_0" index="0" speed="3.65" length="1.44" shape="610.00,921.53,-2.13 610.80,920.33,-2.13" />
    </edge>
    <edge id=":A_24" function="internal">
        <lane id=":A_24_0" index="0" speed="10.36" length="19.50" shape="610.71,916.57,-2.13 610.95,914.88,-2.13 613.80,910.13,-2.13 618.55,907.28,-2.13 625.20,906.33,-2.13" />
    </edge>
    <edge id=":A_25" function="internal">
        <lane id=":A_25_0" index="0" speed="3.65" length="3.23" shape="610.80,920.33,-2.13 611.60,919.93,-2.13 612.40,920.33,-2.13 613.20,921.53,-2.13" />
    </edge>
    <edge id=":A_6" function="internal">
        <lane id=":A_6_0" index="0" speed="6.51" length="9.03" shape="625.20,915.93,-2.13 622.75,916.28,-2.13 621.00,917.33,-2.13 619.95,919.08,-2.13 619.60,921.53,-2.13" />
    </edge>
    <edge id=":A_7" function="internal">
        <lane id=":A_7_0" index="0" speed="13.41" length="27.20" shape="625.20,915.93,-2.13 598.00,915.93,-2.13" />
        <lane id=":A_7_1" index="1" speed="13.41" length="27.20" shape="625.20,912.73,-2.13 598.00,912.73,-2.13" />
        <lane id=":A_7_2" index="2" speed="13.41" length="27.20" shape="625.20,909.53,-2.13 598.00,909.53,-2.13" />
    </edge>
    <edge id=":A_10" function="internal">
        <lane id=":A_10_0" index="0" speed="10.36" length="5.01" shape="625.20,909.53,-2.13 620.23,908.82,-2.11" />
    </edge>
    <edge id=":A_11" function="internal">
        <lane id=":A_11_0" index="0" speed="3.65" length="1.44" shape="625.20,909.53,-2.13 624.00,908.73,-2.13" />
    </edge>
    <edge id=":A_26" function="internal">
        <lane id=":A_26_0" index="0" speed="10.36" length="19.50" shape="620.23,908.82,-2.11 618.55,908.58,-2.10 613.80,905.73,-2.08 610.95,900.98,-2.06 610.00,894.33,-2.03" />
    </edge>
    <edge id=":A_27" function="internal">
        <lane id=":A_27_0" index="0" speed="3.65" length="3.23" shape="624.00,908.73,-2.13 623.60,907.93,-2.13 624.00,907.13,-2.13 625.20,906.33,-2.13" />
    </edge>
    <edge id=":A_12" function="internal">
        <lane id=":A_12_0" index="0" speed="6.51" length="9.03" shape="619.60,894.33,-2.03 619.95,896.78,-2.06 621.00,898.53,-2.08 622.75,899.58,-2.10 625.20,899.93,-2.13" />
    </edge>
    <edge id=":A_13" function="internal">
        <lane id=":A_13_0" index="0" speed="13.41" length="27.20" shape="619.60,894.33,-2.03 619.60,921.53,-2.13" />
        <lane id=":A_13_1" index="1" speed="13.41" length="27.20" shape="616.40,894.33,-2.03 616.40,921.53,-2.13" />
        <lane id=":A_13_2" index="2" speed="13.41" length="27.20" shape="613.20,894.33,-2.03 613.20,921.53,-2.13" />
    </edge>
    <edge id=":A_16" function="internal">
        <lane id=":A_16_0" index="0" speed="10.36" length="5.01" shape="613.20,894.33,-2.03 612.49,899.30,-2.05" />
    </edge>
    <edge id=":A_17" function="internal">
        <lane id=":A_17_0" index="0" speed="3.65" length="1.44" shape="613.20,894.33,-2.03 612.40,895.53,-2.03" />
    </edge>
    <edge id=":A_28" function="internal">
        <lane id=":A_28_0" index="0" speed="10.36" length="19.50" shape="612.49,899.30,-2.05 612.25,900.98,-2.06 609.40,905.73,-2.08 604.65,908.58,-2.10 598.00,909.53,-2.13" />
    </edge>
    <edge id=":A_29" function="internal">
        <lane id=":A_29_0" index="0" speed="3.65" length="3.23" shape="612.40,895.53,-2.03 611.60,895.93,-2.03 610.80,895.53,-2.03 610.00,894.33,-2.03" />
    </edge>
    <edge id=":A_18" function="internal">
        <lane id=":A_18_0" index="0" speed="6.51" length="9.03" shape="598.00,899.93,-2.13 600.45,899.58,-2.10 602.20,898.53,-2.08 603.25,896.78,-2.06 603.60,894.33,-2.03" />
    </edge>
    <edge id=":A_19" function="internal">
        <lane id=":A_19_0" index="0" speed="13.41" length="27.20" shape="598.00,899.93,-2.13 625.20,899.93,-2.13" />
        <lane id=":A_19_1" index="1" speed="13.41" length="27.20" shape="598.00,903.13,-2.13 625.20,903.13,-2.13" />
        <lane id=":A_19_2" index="2" speed="13.41" length="27.20" shape="598.00,906.33,-2.13 625.20,906.33,-2.13" />
    </edge>
    <edge id=":A_22" function="internal">
        <lane id=":A_22_0" index="0" speed="10.36" length="5.01" shape="598.00,906.33,-2.13 602.96,907.04,-2.13" />
    </edge>
    <edge id=":A_23" function="internal">
        <lane id=":A_23_0" index="0" speed="3.65" length="1.44" shape="598.00,906.33,-2.13 599.20,907.13,-2.13" />
    </edge>
    <edge id=":A_30" function="internal">
        <lane id=":A_30_0" index="0" speed="10.36" length="19.50" shape="602.96,907.04,-2.13 604.65,907.28,-2.13 609.40,910.13,-2.13 612.25,914.88,-2.13 613.20,921.53,-2.13" />
    </edge>
    <edge id=":A_31" function="internal">
        <lane id=":A_31_0" index="0" speed="3.65" length="3.23" shape="599.20,907.13,-2.13 599.60,907.93,-2.13 599.20,908.73,-2.13 598.00,909.53,-2.13" />
    </edge>
    <edge id=":AA_0" function="internal">
        <lane id=":AA_0_0" index="0" speed="3.65" length="4.67" shape="308.27,909.53,-2.13 307.07,908.73,-2.13 306.67,907.93,-2.13 307.07,907.13,-2.13 308.27,906.33,-2.13" />
    </edge>
    <edge id=":AB_0" function="internal">
        <lane id=":AB_0_0" index="0" speed="3.65" length="4.67" shape="613.20,1211.26,-2.13 612.40,1212.46,-2.13 611.60,1212.86,-2.13 610.80,1212.46,-2.13 610.00,1211.26,-2.13" />
    </edge>
    <edge id=":AC_0" function="internal">
        <lane id=":AC_0_0" index="0" speed="3.65" length="4.67" shape="914.92,906.33,-2.13 916.12,907.13,-2.13 916.52,907.93,-2.13 916.12,908.73,-2.13 914.92,909.53,-2.13" />
    </edge>
    <edge id=":B_0" function="internal">
        <lane id=":B_0_0" index="0" speed="6.51" length="9.03" shape="904.99,611.81,-6.65 904.64,609.36,-6.61 903.59,607.61,-6.57 901.84,606.56,-6.54 899.39,606.21,-6.49" />
    </edge>
    <edge id=":B_1" function="internal">
        <lane id=":B_1_0" index="0" speed="8.94" length="14.40" shape="904.99,611.81,-6.65 904.99,597.41,-6.65" />
    </edge>
    <edge id=":B_2" function="internal">
        <lane id=":B_2_0" index="0" speed="8.00" length="4.07" shape="904.99,611.81,-6.65 905.54,607.96,-6.65 905.64,607.81,-6.65" />
    </edge>
    <edge id=":B_3" function="internal">
        <lane id=":B_3_0" index="0" speed="3.65" length="1.44" shape="904.99,611.81,-6.65 905.79,610.61,-6.65" />
    </edge>
    <edge id=":B_16" function="internal">
        <lane id=":B_16_0" index="0" speed="8.00" length="10.13" shape="905.64,607.81,-6.65 907.19,605.21,-6.65 909.94,603.56,-6.65 913.79,603.01,-6.65" />
    </edge>
    <edge id=":B_17" function="internal">
        <lane id=":B_17_0" index="0" speed="3.65" length="3.23" shape="905.79,610.61,-6.65 906.59,610.21,-6.65 907.39,610.61,-6.65 908.19,611.81,-6.65" />
    </edge>
    <edge id=":B_4" function="internal">
        <lane id=":B_4_0" index="0" speed="6.51" length="9.03" shape="913.79,606.21,-6.65 911.34,606.56,-6.65 909.59,607.61,-6.65 908.54,609.36,-6.65 908.19,611.81,-6.65" />
    </edge>
    <edge id=":B_5" function="internal">
        <lane id=":B_5_0" index="0" speed="8.94" length="14.40" shape="913.79,606.21,-6.65 899.39,606.21,-6.49" />
    </edge>
    <edge id=":B_6" function="internal">
        <lane id=":B_6_0" index="0" speed="8.00" length="4.07" shape="913.79,606.21,-6.65 909.94,605.66,-6.65 909.79,605.57,-6.65" />
    </edge>
    <edge id=":B_7" function="internal">
        <lane id=":B_7_0" index="0" speed="3.65" length="1.44" shape="913.79,606.21,-6.65 912.59,605.41,-6.65" />
    </edge>
    <edge id=":B_18" function="internal">
        <lane id=":B_18_0" index="0" speed="8.00" length="10.13" shape="909.79,605.57,-6.65 907.19,604.01,-6.65 905.54,601.26,-6.65 904.99,597.41,-6.65" />
    </edge>
    <edge id=":B_19" function="internal">
        <lane id=":B_19_0" index="0" speed="3.65" length="3.23" shape="912.59,605.41,-6.65 912.19,604.61,-6.65 912.59,603.81,-6.65 913.79,603.01,-6.65" />
    </edge>
    <edge id=":B_8" function="internal">
        <lane id=":B_8_0" index="0" speed="6.51" length="9.03" shape="908.19,597.41,-6.65 908.54,599.86,-6.65 909.59,601.61,-6.65 911.34,602.66,-6.65 913.79,603.01,-6.65" />
    </edge>
    <edge id=":B_9" function="internal">
        <lane id=":B_9_0" index="0" speed="8.94" length="14.40" shape="908.19,597.41,-6.65 908.19,611.81,-6.65" />
    </edge>
    <edge id=":B_10" function="internal">
        <lane id=":B_10_0" index="0" speed="8.00" length="4.07" shape="908.19,597.41,-6.65 907.64,601.26,-6.61 907.55,601.41,-6.61" />
    </edge>
    <edge id=":B_11" function="internal">
        <lane id=":B_11_0" index="0" speed="3.65" length="1.44" shape="908.19,597.41,-6.65 907.39,598.61,-6.65" />
    </edge>
    <edge id=":B_20" function="internal">
        <lane id=":B_20_0" index="0" speed="8.00" length="10.13" shape="907.55,601.41,-6.61 905.99,604.01,-6.57 903.24,605.66,-6.54 899.39,606.21,-6.49" />
    </edge>
    <edge id=":B_21" function="internal">
        <lane id=":B_21_0" index="0" speed="3.65" length="3.23" shape="907.39,598.61,-6.65 906.59,599.01,-6.65 905.79,598.61,-6.65 904.99,597.41,-6.65" />
    </edge>
    <edge id=":B_12" function="internal">
        <lane id=":B_12_0" index="0" speed="6.51" length="9.03" shape="899.39,603.01,-6.48 901.84,602.66,-6.53 903.59,601.61,-6.57 904.64,599.86,-6.61 904.99,597.41,-6.65" />
    </edge>
    <edge id=":B_13" function="internal">
        <lane id=":B_13_0" index="0" speed="8.94" length="14.40" shape="899.39,603.01,-6.48 913.79,603.01,-6.65" />
    </edge>
    <edge id=":B_14" function="internal">
        <lane id=":B_14_0" index="0" speed="8.00" length="4.07" shape="899.39,603.01,-6.48 903.24,603.56,-6.53 903.40,603.65,-6.53" />
    </edge>
    <edge id=":B_15" function="internal">
        <lane id=":B_15_0" index="0" speed="3.65" length="1.44" shape="899.39,603.01,-6.48 900.59,603.81,-6.49" />
    </edge>
    <edge id=":B_22" function="internal">
        <lane id=":B_22_0" index="0" speed="8.00" length="10.13" shape="903.40,603.65,-6.53 905.99,605.21,-6.57 907.64,607.96,-6.61 908.19,611.81,-6.65" />
    </edge>
    <edge id=":B_23" function="internal">
        <lane id=":B_23_0" index="0" speed="3.65" length="3.23" shape="900.59,603.81,-6.49 900.99,604.61,-6.49 900.59,605.41,-6.49 899.39,606.21,-6.49" />
    </edge>
    <edge id=":BA_0" function="internal">
        <lane id=":BA_0_0" index="0" speed="3.65" length="4.67" shape="908.19,899.61,-6.65 907.39,900.81,-6.65 906.59,901.21,-6.65 905.79,900.81,-6.65 904.99,899.61,-6.65" />
    </edge>
    <edge id=":BB_0" function="internal">
        <lane id=":BB_0_0" index="0" speed="3.65" length="4.67" shape="1201.59,603.01,-6.65 1202.79,603.81,-6.65 1203.19,604.61,-6.65 1202.79,605.41,-6.65 1201.59,606.21,-6.65" />
    </edge>
    <edge id=":BC_0" function="internal">
        <lane id=":BC_0_0" index="0" speed="3.65" length="4.67" shape="904.99,309.61,-6.65 905.79,308.41,-6.65 906.59,308.01,-6.65 907.39,308.41,-6.65 908.19,309.61,-6.65" />
    </edge>
    <edge id=":C_0" function="internal">
        <lane id=":C_0_0" index="0" speed="6.51" length="9.03" shape="603.60,315.90,0.53 603.25,313.45,0.53 602.20,311.70,0.54 600.45,310.65,0.55 598.00,310.30,0.55" />
    </edge>
    <edge id=":C_1" function="internal">
        <lane id=":C_1_0" index="0" speed="13.41" length="27.20" shape="603.60,315.90,0.53 603.60,288.70,0.55" />
        <lane id=":C_1_1" index="1" speed="13.41" length="27.20" shape="606.80,315.90,0.53 606.80,288.70,0.55" />
        <lane id=":C_1_2" index="2" speed="13.41" length="27.20" shape="610.00,315.90,0.53 610.00,288.70,0.55" />
    </edge>
    <edge id=":C_4" function="internal">
        <lane id=":C_4_0" index="0" speed="10.36" length="5.01" shape="610.00,315.90,0.53 610.71,310.94,0.53" />
    </edge>
    <edge id=":C_5" function="internal">
        <lane id=":C_5_0" index="0" speed="3.65" length="1.44" shape="610.00,315.90,0.53 610.80,314.70,0.53" />
    </edge>
    <edge id=":C_24" function="internal">
        <lane id=":C_24_0" index="0" speed="10.36" length="19.50" shape="610.71,310.94,0.53 610.95,309.25,0.53 613.80,304.50,0.54 618.55,301.65,0.55 625.20,300.70,0.55" />
    </edge>
    <edge id=":C_25" function="internal">
        <lane id=":C_25_0" index="0" speed="3.65" length="3.23" shape="610.80,314.70,0.53 611.60,314.30,0.53 612.40,314.70,0.53 613.20,315.90,0.53" />
    </edge>
    <edge id=":C_6" function="internal">
        <lane id=":C_6_0" index="0" speed="6.51" length="9.03" shape="625.20,310.30,0.55 622.75,310.65,0.55 621.00,311.70,0.54 619.95,313.45,0.53 619.60,315.90,0.53" />
    </edge>
    <edge id=":C_7" function="internal">
        <lane id=":C_7_0" index="0" speed="13.41" length="27.20" shape="625.20,310.30,0.55 598.00,310.30,0.55" />
        <lane id=":C_7_1" index="1" speed="13.41" length="27.20" shape="625.20,307.10,0.55 598.00,307.10,0.55" />
        <lane id=":C_7_2" index="2" speed="13.41" length="27.20" shape="625.20,303.90,0.55 598.00,303.90,0.55" />
    </edge>
    <edge id=":C_10" function="internal">
        <lane id=":C_10_0" index="0" speed="10.36" length="5.01" shape="625.20,303.90,0.55 620.23,303.19,0.55" />
    </edge>
    <edge id=":C_11" function="internal">
        <lane id=":C_11_0" index="0" speed="3.65" length="1.44" shape="625.20,303.90,0.55 624.00,303.10,0.55" />
    </edge>
    <edge id=":C_26" function="internal">
        <lane id=":C_26_0" index="0" speed="10.36" length="19.50" shape="620.23,303.19,0.55 618.55,302.95,0.55 613.80,300.10,0.55 610.95,295.35,0.55 610.00,288.70,0.55" />
    </edge>
    <edge id=":C_27" function="internal">
        <lane id=":C_27_0" index="0" speed="3.65" length="3.23" shape="624.00,303.10,0.55 623.60,302.30,0.55 624.00,301.50,0.55 625.20,300.70,0.55" />
    </edge>
    <edge id=":C_12" function="internal">
        <lane id=":C_12_0" index="0" speed="6.51" length="9.03" shape="619.60,288.70,0.55 619.95,291.15,0.55 621.00,292.90,0.55 622.75,293.95,0.55 625.20,294.30,0.55" />
    </edge>
    <edge id=":C_13" function="internal">
        <lane id=":C_13_0" index="0" speed="13.41" length="27.20" shape="619.60,288.70,0.55 619.60,315.90,0.53" />
        <lane id=":C_13_1" index="1" speed="13.41" length="27.20" shape="616.40,288.70,0.55 616.40,315.90,0.53" />
        <lane id=":C_13_2" index="2" speed="13.41" length="27.20" shape="613.20,288.70,0.55 613.20,315.90,0.53" />
    </edge>
    <edge id=":C_16" function="internal">
        <lane id=":C_16_0" index="0" speed="10.36" length="5.01" shape="613.20,288.70,0.55 612.49,293.67,0.55" />
    </edge>
    <edge id=":C_17" function="internal">
        <lane id=":C_17_0" index="0" speed="3.65" length="1.44" shape="613.20,288.70,0.55 612.40,289.90,0.55" />
    </edge>
    <edge id=":C_28" function="internal">
        <lane id=":C_28_0" index="0" speed="10.36" length="19.50" shape="612.49,293.67,0.55 612.25,295.35,0.55 609.40,300.10,0.55 604.65,302.95,0.55 598.00,303.90,0.55" />
    </edge>
    <edge id=":C_29" function="internal">
        <lane id=":C_29_0" index="0" speed="3.65" length="3.23" shape="612.40,289.90,0.55 611.60,290.30,0.55 610.80,289.90,0.55 610.00,288.70,0.55" />
    </edge>
    <edge id=":C_18" function="internal">
        <lane id=":C_18_0" index="0" speed="6.51" length="9.03" shape="598.00,294.30,0.55 600.45,293.95,0.55 602.20,292.90,0.55 603.25,291.15,0.55 603.60,288.70,0.55" />
    </edge>
    <edge id=":C_19" function="internal">
        <lane id=":C_19_0" index="0" speed="13.41" length="27.20" shape="598.00,294.30,0.55 625.20,294.30,0.55" />
        <lane id=":C_19_1" index="1" speed="13.41" length="27.20" shape="598.00,297.50,0.55 625.20,297.50,0.55" />
        <lane id=":C_19_2" index="2" speed="13.41" length="27.20" shape="598.00,300.70,0.55 625.20,300.70,0.55" />
    </edge>
    <edge id=":C_22" function="internal">
        <lane id=":C_22_0" index="0" speed="10.36" length="5.01" shape="598.00,300.70,0.55 602.96,301.41,0.55" />
    </edge>
    <edge id=":C_23" function="internal">
        <lane id=":C_23_0" index="0" speed="3.65" length="1.44" shape="598.00,300.70,0.55 599.20,301.50,0.55" />
    </edge>
    <edge id=":C_30" function="internal">
        <lane id=":C_30_0" index="0" speed="10.36" length="19.50" shape="602.96,301.41,0.55 604.65,301.65,0.55 609.40,304.50,0.54 612.25,309.25,0.53 613.20,315.90,0.53" />
    </edge>
    <edge id=":C_31" function="internal">
        <lane id=":C_31_0" index="0" speed="3.65" length="3.23" shape="599.20,301.50,0.55 599.60,302.30,0.55 599.20,303.10,0.55 598.00,303.90,0.55" />
    </edge>
    <edge id=":CA_0" function="internal">
        <lane id=":CA_0_0" index="0" speed="3.65" length="4.67" shape="913.90,300.70,0.55 915.10,301.50,0.55 915.50,302.30,0.55 915.10,303.10,0.55 913.90,303.90,0.55" />
    </edge>
    <edge id=":CB_0" function="internal">
        <lane id=":CB_0_0" index="0" speed="3.65" length="4.67" shape="610.00,-0.00,0.55 610.80,-1.20,0.55 611.60,-1.60,0.55 612.40,-1.20,0.55 613.20,-0.00,0.55" />
    </edge>
    <edge id=":CC_0" function="internal">
        <lane id=":CC_0_0" index="0" speed="3.65" length="4.67" shape="309.29,303.90,0.55 308.09,303.10,0.55 307.69,302.30,0.55 308.09,301.50,0.55 309.29,300.70,0.55" />
    </edge>
    <edge id=":D_0" function="internal">
        <lane id=":D_0_0" index="0" speed="6.51" length="9.03" shape="304.20,611.81 303.85,609.36 302.80,607.61 301.05,606.56 298.60,606.21" />
    </edge>
    <edge id=":D_1" function="internal">
        <lane id=":D_1_0" index="0" speed="17.88" length="14.40" shape="304.20,611.81 304.20,597.41" />
    </edge>
    <edge id=":D_2" function="internal">
        <lane id=":D_2_0" index="0" speed="8.00" length="4.07" shape="304.20,611.81 304.75,607.96 304.84,607.81" />
    </edge>
    <edge id=":D_3" function="internal">
        <lane id=":D_3_0" index="0" speed="3.65" length="1.44" shape="304.20,611.81 305.00,610.61" />
    </edge>
    <edge id=":D_16" function="internal">
        <lane id=":D_16_0" index="0" speed="8.00" length="10.13" shape="304.84,607.81 306.40,605.21 309.15,603.56 313.00,603.01" />
    </edge>
    <edge id=":D_17" function="internal">
        <lane id=":D_17_0" index="0" speed="3.65" length="3.23" shape="305.00,610.61 305.80,610.21 306.60,610.61 307.40,611.81" />
    </edge>
    <edge id=":D_4" function="internal">
        <lane id=":D_4_0" index="0" speed="6.51" length="9.03" shape="313.00,606.21 310.55,606.56 308.80,607.61 307.75,609.36 307.40,611.81" />
    </edge>
    <edge id=":D_5" function="internal">
        <lane id=":D_5_0" index="0" speed="17.88" length="14.40" shape="313.00,606.21 298.60,606.21" />
    </edge>
    <edge id=":D_6" function="internal">
        <lane id=":D_6_0" index="0" speed="8.00" length="4.07" shape="313.00,606.21 309.15,605.66 309.00,605.57" />
    </edge>
    <edge id=":D_7" function="internal">
        <lane id=":D_7_0" index="0" speed="3.65" length="1.44" shape="313.00,606.21 311.80,605.41" />
    </edge>
    <edge id=":D_18" function="internal">
        <lane id=":D_18_0" index="0" speed="8.00" length="10.13" shape="309.00,605.57 306.40,604.01 304.75,601.26 304.20,597.41" />
    </edge>
    <edge id=":D_19" function="internal">
        <lane id=":D_19_0" index="0" speed="3.65" length="3.23" shape="311.80,605.41 311.40,604.61 311.80,603.81 313.00,603.01" />
    </edge>
    <edge id=":D_8" function="internal">
        <lane id=":D_8_0" index="0" speed="6.51" length="9.03" shape="307.40,597.41 307.75,599.86 308.80,601.61 310.55,602.66 313.00,603.01" />
    </edge>
    <edge id=":D_9" function="internal">
        <lane id=":D_9_0" index="0" speed="17.88" length="14.40" shape="307.40,597.41 307.40,611.81" />
    </edge>
    <edge id=":D_10" function="internal">
        <lane id=":D_10_0" index="0" speed="8.00" length="4.07" shape="307.40,597.41 306.85,601.26 306.76,601.41" />
    </edge>
    <edge id=":D_11" function="internal">
        <lane id=":D_11_0" index="0" speed="3.65" length="1.44" shape="307.40,597.41 306.60,598.61" />
    </edge>
    <edge id=":D_20" function="internal">
        <lane id=":D_20_0" index="0" speed="8.00" length="10.13" shape="306.76,601.41 305.20,604.01 302.45,605.66 298.60,606.21" />
    </edge>
    <edge id=":D_21" function="internal">
        <lane id=":D_21_0" index="0" speed="3.65" length="3.23" shape="306.60,598.61 305.80,599.01 305.00,598.61 304.20,597.41" />
    </edge>
    <edge id=":D_12" function="internal">
        <lane id=":D_12_0" index="0" speed="6.51" length="9.03" shape="298.60,603.01 301.05,602.66 302.80,601.61 303.85,599.86 304.20,597.41" />
    </edge>
    <edge id=":D_13" function="internal">
        <lane id=":D_13_0" index="0" speed="17.88" length="14.40" shape="298.60,603.01 313.00,603.01" />
    </edge>
    <edge id=":D_14" function="internal">
        <lane id=":D_14_0" index="0" speed="8.00" length="4.07" shape="298.60,603.01 302.45,603.56 302.60,603.65" />
    </edge>
    <edge id=":D_15" function="internal">
        <lane id=":D_15_0" index="0" speed="3.65" length="1.44" shape="298.60,603.01 299.80,603.81" />
    </edge>
    <edge id=":D_22" function="internal">
        <lane id=":D_22_0" index="0" speed="8.00" length="10.13" shape="302.60,603.65 305.20,605.21 306.85,607.96 307.40,611.81" />
    </edge>
    <edge id=":D_23" function="internal">
        <lane id=":D_23_0" index="0" speed="3.65" length="3.23" shape="299.80,603.81 300.20,604.61 299.80,605.41 298.60,606.21" />
    </edge>
    <edge id=":DA_0" function="internal">
        <lane id=":DA_0_0" index="0" speed="3.65" length="4.67" shape="304.20,298.81 305.00,297.61 305.80,297.21 306.60,297.61 307.40,298.81" />
    </edge>
    <edge id=":DB_0" function="internal">
        <lane id=":DB_0_0" index="0" speed="3.65" length="4.67" shape="-0.00,606.21 -1.20,605.41 -1.60,604.61 -1.20,603.81 0.00,603.01" />
    </edge>
    <edge id=":DC_0" function="internal">
        <lane id=":DC_0_0" index="0" speed="3.65" length="4.67" shape="307.40,910.41 306.60,911.61 305.80,912.01 305.00,911.61 304.20,910.41" />
    </edge>
    <edge id=":TL_0" function="internal">
        <lane id=":TL_0_0" index="0" speed="6.51" length="9.03" shape="603.60,611.81,-0.05 603.25,609.36,-0.04 602.20,607.61,-0.03 600.45,606.56,-0.01 598.00,606.21" />
    </edge>
    <edge id=":TL_1" function="internal">
        <lane id=":TL_1_0" index="0" speed="13.41" length="14.40" shape="603.60,611.81,-0.05 603.60,597.41,0.01" />
        <lane id=":TL_1_1" index="1" speed="13.41" length="14.40" shape="606.80,611.81,-0.05 606.80,597.41,0.01" />
        <lane id=":TL_1_2" index="2" speed="13.41" length="14.40" shape="610.00,611.81,-0.05 610.00,597.41,0.01" />
    </edge>
    <edge id=":TL_4" function="internal">
        <lane id=":TL_4_0" index="0" speed="9.32" length="3.03" shape="610.00,611.81,-0.05 610.72,608.86,-0.04" />
    </edge>
    <edge id=":TL_14" function="internal">
        <lane id=":TL_14_0" index="0" speed="9.32" length="16.60" shape="610.72,608.86,-0.04 610.95,607.96,-0.04 613.80,605.21,-0.03 618.55,603.56,-0.02 625.20,603.01" />
    </edge>
    <edge id=":TL_5" function="internal">
        <lane id=":TL_5_0" index="0" speed="6.51" length="9.03" shape="625.20,606.21 622.75,606.56,-0.01 621.00,607.61,-0.03 619.95,609.36,-0.04 619.60,611.81,-0.05" />
    </edge>
    <edge id=":TL_6" function="internal">
        <lane id=":TL_6_0" index="0" speed="13.41" length="27.20" shape="625.20,606.21 598.00,606.21" />
    </edge>
    <edge id=":TL_7" function="internal">
        <lane id=":TL_7_0" index="0" speed="6.51" length="9.03" shape="619.60,597.41,0.01 619.95,599.86,0.01 621.00,601.61,0.01 622.75,602.66,0.00 625.20,603.01" />
    </edge>
    <edge id=":TL_8" function="internal">
        <lane id=":TL_8_0" index="0" speed="13.41" length="14.40" shape="619.60,597.41,0.01 619.60,611.81,-0.05" />
        <lane id=":TL_8_1" index="1" speed="13.41" length="14.40" shape="616.40,597.41,0.01 616.40,611.81,-0.05" />
        <lane id=":TL_8_2" index="2" speed="13.41" length="14.40" shape="613.20,597.41,0.01 613.20,611.81,-0.05" />
    </edge>
    <edge id=":TL_11" function="internal">
        <lane id=":TL_11_0" index="0" speed="9.32" length="3.03" shape="613.20,597.41,0.01 612.47,600.35,0.01" />
    </edge>
    <edge id=":TL_15" function="internal">
        <lane id=":TL_15_0" index="0" speed="9.32" length="16.60" shape="612.47,600.35,0.01 612.25,601.26,0.01 609.40,604.01,0.01 604.65,605.66,0.00 598.00,606.21" />
    </edge>
    <edge id=":TL_12" function="internal">
        <lane id=":TL_12_0" index="0" speed="6.51" length="9.03" shape="598.00,603.01 600.45,602.66,0.00 602.20,601.61,0.01 603.25,599.86,0.01 603.60,597.41,0.01" />
    </edge>
    <edge id=":TL_13" function="internal">
        <lane id=":TL_13_0" index="0" speed="13.41" length="27.20" shape="598.00,603.01 625.20,603.01" />
    </edge>

    <edge id="A2AA" from="A" to="AA" priority="-1">
        <lane id="A2AA_0" index="0" speed="13.41" length="289.72" shape="598.00,915.93,-2.13 308.27,915.93,-2.13" />
        <lane id="A2AA_1" index="1" speed="13.41" length="289.72" shape="598.00,912.73,-2.13 308.27,912.73,-2.13" />
        <lane id="A2AA_2" index="2" speed="13.41" length="289.72" shape="598.00,909.53,-2.13 308.27,909.53,-2.13" />
    </edge>
    <edge id="A2AB" from="A" to="AB" priority="-1">
        <lane id="A2AB_0" index="0" speed="13.41" length="289.72" shape="619.60,921.53,-2.13 619.60,1211.26,-2.13" />
        <lane id="A2AB_1" index="1" speed="13.41" length="289.72" shape="616.40,921.53,-2.13 616.40,1211.26,-2.13" />
        <lane id="A2AB_2" index="2" speed="13.41" length="289.72" shape="613.20,921.53,-2.13 613.20,1211.26,-2.13" />
    </edge>
    <edge id="A2AC" from="A" to="AC" priority="-1">
        <lane id="A2AC_0" index="0" speed="13.41" length="289.72" shape="625.20,899.93,-2.13 914.92,899.93,-2.13" />
        <lane id="A2AC_1" index="1" speed="13.41" length="289.72" shape="625.20,903.13,-2.13 914.92,903.13,-2.13" />
        <lane id="A2AC_2" index="2" speed="13.41" length="289.72" shape="625.20,906.33,-2.13 914.92,906.33,-2.13" />
    </edge>
    <edge id="A2TL" from="A" to="TL" priority="-1">
        <lane id="A2TL_0" index="0" speed="13.41" length="282.53" shape="603.60,894.33,-2.03 603.60,611.81,-0.05" />
        <lane id="A2TL_1" index="1" speed="13.41" length="282.53" shape="606.80,894.33,-2.03 606.80,611.81,-0.05" />
        <lane id="A2TL_2" index="2" speed="13.41" length="282.53" shape="610.00,894.33,-2.03 610.00,611.81,-0.05" />
    </edge>
    <edge id="AA2A" from="AA" to="A" priority="-1">
        <lane id="AA2A_0" index="0" speed="13.41" length="289.72" shape="308.27,899.93,-2.13 598.00,899.93,-2.13" />
        <lane id="AA2A_1" index="1" speed="13.41" length="289.72" shape="308.27,903.13,-2.13 598.00,903.13,-2.13" />
        <lane id="AA2A_2" index="2" speed="13.41" length="289.72" shape="308.27,906.33,-2.13 598.00,906.33,-2.13" />
    </edge>
    <edge id="AB2A" from="AB" to="A" priority="-1">
        <lane id="AB2A_0" index="0" speed="13.41" length="289.72" shape="603.60,1211.26,-2.13 603.60,921.53,-2.13" />
        <lane id="AB2A_1" index="1" speed="13.41" length="289.72" shape="606.80,1211.26,-2.13 606.80,921.53,-2.13" />
        <lane id="AB2A_2" index="2" speed="13.41" length="289.72" shape="610.00,1211.26,-2.13 610.00,921.53,-2.13" />
    </edge>
    <edge id="AC2A" from="AC" to="A" priority="-1">
        <lane id="AC2A_0" index="0" speed="13.41" length="289.72" shape="914.92,915.93,-2.13 625.20,915.93,-2.13" />
        <lane id="AC2A_1" index="1" speed="13.41" length="289.72" shape="914.92,912.73,-2.13 625.20,912.73,-2.13" />
        <lane id="AC2A_2" index="2" speed="13.41" length="289.72" shape="914.92,909.53,-2.13 625.20,909.53,-2.13" />
    </edge>
    <edge id="B2BA" from="B" to="BA" priority="-1">
        <lane id="B2BA_0" index="0" speed="8.94" length="287.80" shape="908.19,611.81,-6.65 908.19,899.61,-6.65" />
    </edge>
    <edge id="B2BB" from="B" to="BB" priority="-1">
        <lane id="B2BB_0" index="0" speed="8.94" length="287.80" shape="913.79,603.01,-6.65 1201.59,603.01,-6.65" />
    </edge>
    <edge id="B2BC" from="B" to="BC" priority="-1">
        <lane id="B2BC_0" index="0" speed="8.94" length="287.80" shape="904.99,597.41,-6.65 904.99,309.61,-6.65" />
    </edge>
    <edge id="B2TL" from="B" to="TL" priority="-1">
        <lane id="B2TL_0" index="0" speed="8.94" length="274.27" shape="899.39,606.21,-6.49 625.20,606.21" />
    </edge>
    <edge id="BA2B" from="BA" to="B" priority="-1">
        <lane id="BA2B_0" index="0" speed="8.94" length="287.80" shape="904.99,899.61,-6.65 904.99,611.81,-6.65" />
    </edge>
    <edge id="BB2B" from="BB" to="B" priority="-1">
        <lane id="BB2B_0" index="0" speed="8.94" length="287.80" shape="1201.59,606.21,-6.65 913.79,606.21,-6.65" />
    </edge>
    <edge id="BC2B" from="BC" to="B" priority="-1">
        <lane id="BC2B_0" index="0" speed="8.94" length="287.80" shape="908.19,309.61,-6.65 908.19,597.41,-6.65" />