<net xmlns:xsi="http://www.w3.org/2001/XMLSchema-instance" version="1.9" junctionCornerDetail="5" limitTurnSpeed="5.50" xsi:noNamespaceSchemaLocation="http://sumo.dlr.de/xsd/net_file.xsd">

    <location netOffset="1787.40,2487.40" convBoundary="0.00,0.00,3574.81,3644.93" origBoundary="-1787.40,-2487.40,1787.40,1157.53" projParameter="!" />

    <edge id=":A_0" function="internal">
        <lane id=":A_0_0" index="0" speed="6.51" length="9.03" shape="1795.40,3052.57,-11.99 1795.75,3055.02,-11.99 1796.80,3056.77,-11.99 1798.55,3057.82,-11.99 1801.00,3058.17,-11.99" />
        <lane id=":A_0_1" index="1" speed="7.33" length="11.73" shape="1795.40,3052.57,-11.99 1795.75,3056.42,-11.99 1796.80,3059.17,-11.99 1798.55,3060.82,-11.99 1801.00,3061.37,-11.99" />
        <lane id=":A_0_2" index="2" speed="8.10" length="14.57" shape="1795.40,3052.57,-11.99 1795.75,3057.82,-11.99 1796.80,3061.57,-11.99 1798.55,3063.82,-11.99 1801.00,3064.57,-11.99" />
    </edge>
    <edge id=":A_3" function="internal">
        <lane id=":A_3_0" index="0" speed="22.35" length="27.20" shape="1795.40,3052.57,-11.99 1795.40,3079.77,-11.99" />
        <lane id=":A_3_1" index="1" speed="22.35" length="27.20" shape="1792.20,3052.57,-11.99 1792.20,3079.77,-11.99" />
        <lane id=":A_3_2" index="2" speed="22.35" length="27.20" shape="1789.00,3052.57,-11.99 1789.00,3079.77,-11.99" />
    </edge>
    <edge id=":A_6" function="internal">
        <lane id=":A_6_0" index="0" speed="10.16" length="23.50" shape="1789.00,3052.57,-11.99 1788.65,3062.02,-11.99 1787.60,3068.77,-11.99 1785.85,3072.82,-11.99 1783.40,3074.17,-11.99" />
        <lane id=":A_6_1" index="1" speed="9.51" length="20.48" shape="1789.00,3052.57,-11.99 1788.65,3060.62,-11.99 1787.60,3066.37,-11.99 1785.85,3069.82,-11.99 1783.40,3070.97,-11.99" />
        <lane id=":A_6_2" index="2" speed="8.83" length="17.50" shape="1789.00,3052.57,-11.99 1788.65,3059.22,-11.99 1787.60,3063.97,-11.99 1785.85,3066.82,-11.99 1783.40,3067.77,-11.99" />
    </edge>
    <edge id=":B_0" function="internal">
        <lane id=":B_0_0" index="0" speed="6.51" length="9.03" shape="1925.66,2501.00,0.04 1925.31,2498.55,0.04 1924.26,2496.80,0.04 1922.51,2495.75,0.04 1920.06,2495.40,0.04" />
    </edge>
    <edge id=":B_1" function="internal">
        <lane id=":B_1_0" index="0" speed="13.41" length="24.27" shape="1925.66,2501.00,0.04 1926.16,2493.55,0.04 1927.26,2488.21,0.04 1928.36,2483.27,0.04 1928.86,2477.00,0.04" />
        <lane id=":B_1_1" index="1" speed="13.41" length="24.27" shape="1928.86,2501.00,0.04 1929.36,2493.55,0.04 1930.46,2488.21,0.04 1931.56,2483.27,0.04 1932.06,2477.00,0.04" />
    </edge>
    <edge id=":B_3" function="internal">
        <lane id=":B_3_0" index="0" speed="10.36" length="7.35" shape="1932.06,2501.00,0.04 1933.01,2494.35,0.04 1933.33,2493.81,0.04" />
    </edge>
    <edge id=":B_4" function="internal">
        <lane id=":B_4_0" index="0" speed="3.65" length="1.44" shape="1932.06,2501.00,0.04 1932.86,2499.80,0.04" />
    </edge>
    <edge id=":B_21" function="internal">
        <lane id=":B_21_0" index="0" speed="10.36" length="17.17" shape="1933.33,2493.81,0.04 1935.86,2489.60,0.04 1940.61,2486.75,0.04 1947.26,2485.80,0.04" />
    </edge>
    <edge id=":B_22" function="internal">
        <lane id=":B_22_0" index="0" speed="3.65" length="3.23" shape="1932.86,2499.80,0.04 1933.66,2499.40,0.04 1934.46,2499.80,0.04 1935.26,2501.00,0.04" />
    </edge>
    <edge id=":B_5" function="internal">
        <lane id=":B_5_0" index="0" speed="7.33" length="11.73" shape="1947.26,2495.40,0.04 1943.41,2495.75,0.04 1940.66,2496.80,0.04 1939.01,2498.55,0.04 1938.46,2501.00,0.04" />
    </edge>
    <edge id=":B_6" function="internal">
        <lane id=":B_6_0" index="0" speed="13.41" length="27.20" shape="1947.26,2495.40,0.04 1920.06,2495.40,0.04" />
        <lane id=":B_6_1" index="1" speed="13.41" length="27.20" shape="1947.26,2492.20,0.04 1920.06,2492.20,0.04" />
        <lane id=":B_6_2" index="2" speed="13.41" length="27.20" shape="1947.26,2489.00,0.04 1920.06,2489.00,0.04" />
    </edge>
    <edge id=":B_9" function="internal">
        <lane id=":B_9_0" index="0" speed="9.84" length="6.30" shape="1947.26,2489.00,0.04 1941.00,2488.30,0.04" />
    </edge>
    <edge id=":B_10" function="internal">
        <lane id=":B_10_0" index="0" speed="3.65" length="1.44" shape="1947.26,2489.00,0.04 1946.06,2488.20,0.04" />
    </edge>
    <edge id=":B_23" function="internal">
        <lane id=":B_23_0" index="0" speed="9.84" length="15.70" shape="1941.00,2488.30,0.04 1940.61,2488.25,0.04 1935.86,2486.00,0.04 1933.01,2482.25,0.04 1932.06,2477.00,0.04" />
    </edge>
    <edge id=":B_24" function="internal">
        <lane id=":B_24_0" index="0" speed="3.65" length="3.23" shape="1946.06,2488.20,0.04 1945.66,2487.40,0.04 1946.06,2486.60,0.04 1947.26,2485.80,0.04" />
    </edge>
    <edge id=":B_11" function="internal">
        <lane id=":B_11_0" index="0" speed="6.51" length="9.03" shape="1941.66,2477.00,0.04 1942.01,2479.45,0.04 1943.06,2481.20,0.04 1944.81,2482.25,0.04 1947.26,2482.60,0.04" />
    </edge>
    <edge id=":B_12" function="internal">
        <lane id=":B_12_0" index="0" speed="13.41" length="24.27" shape="1941.66,2477.00,0.04 1941.16,2484.46,0.04 1940.06,2489.79,0.04 1938.96,2494.74,0.04 1938.46,2501.00,0.04" />
        <lane id=":B_12_1" index="1" speed="13.41" length="24.27" shape="1938.46,2477.00,0.04 1937.96,2484.46,0.04 1936.86,2489.79,0.04 1935.76,2494.74,0.04 1935.26,2501.00,0.04" />
    </edge>
    <edge id=":B_14" function="internal">
        <lane id=":B_14_0" index="0" speed="9.84" length="5.46" shape="1935.26,2477.00,0.04 1934.31,2482.25,0.04 1934.23,2482.36,0.04" />
    </edge>
    <edge id=":B_15" function="internal">
        <lane id=":B_15_0" index="0" speed="3.65" length="1.44" shape="1935.26,2477.00,0.04 1934.46,2478.20,0.04" />
    </edge>
    <edge id=":B_25" function="internal">
        <lane id=":B_25_0" index="0" speed="9.84" length="16.53" shape="1934.23,2482.36,0.04 1931.46,2486.00,0.04 1926.71,2488.25,0.04 1920.06,2489.00,0.04" />
    </edge>
    <edge id=":B_26" function="internal">
        <lane id=":B_26_0" index="0" speed="3.65" length="3.23" shape="1934.46,2478.20,0.04 1933.66,2478.60,0.04 1932.86,2478.20,0.04 1932.06,2477.00,0.04" />
    </edge>
    <edge id=":B_16" function="internal">
        <lane id=":B_16_0" index="0" speed="7.33" length="11.73" shape="1920.06,2482.60,0.04 1923.91,2482.25,0.04 1926.66,2481.20,0.04 1928.31,2479.45,0.04 1928.86,2477.00,0.04" />
    </edge>
    <edge id=":B_17" function="internal">
        <lane id=":B_17_0" index="0" speed="13.41" length="27.20" shape="1920.06,2482.60,0.04 1947.26,2482.60,0.04" />
        <lane id=":B_17_1" index="1" speed="13.41" length="27.20" shape="1920.06,2485.80,0.04 1947.26,2485.80,0.04" />
    </edge>
    <edge id=":B_19" function="internal">
        <lane id=":B_19_0" index="0" speed="10.36" length="5.01" shape="1920.06,2485.80,0.04 1925.02,2486.51,0.04" />
    </edge>
    <edge id=":B_20" function="internal">
        <lane id=":B_20_0" index="0" speed="3.65" length="1.44" shape="1920.06,2485.80,0.04 1921.26,2486.60,0.04" />
    </edge>
    <edge id=":B_27" function="internal">
        <lane id=":B_27_0" index="0" speed="10.36" length="19.50" shape="1925.02,2486.51,0.04 1926.71,2486.75,0.04 1931.46,2489.60,0.04 1934.31,2494.35,0.04 1935.26,2501.00,0.04" />
    </edge>
    <edge id=":B_28" function="internal">
        <lane id=":B_28_0" index="0" speed="3.65" length="3.23" shape="1921.26,2486.60,0.04 1921.66,2487.40,0.04 1921.26,2488.20,0.04 1920.06,2489.00,0.04" />
    </edge>
    <edge id=":BA_0" function="internal">
        <lane id=":BA_0_0" index="0" speed="3.65" length="4.67" shape="1935.26,2633.66,0.04 1934.46,2634.86,0.04 1933.66,2635.26,0.04 1932.86,2634.86,0.04 1932.06,2633.66,0.04" />
    </edge>
    <edge id=":BB_0" function="internal">
        <lane id=":BB_0_0" index="0" speed="3.65" length="4.67" shape="2079.91,2485.80,0.04 2081.11,2486.60,0.04 2081.51,2487.40,0.04 2081.11,2488.20,0.04 2079.91,2489.00,0.04" />
    </edge>
    <edge id=":BC_0" function="internal">
        <lane id=":BC_0_0" index="0" speed="3.65" length="4.67" shape="1932.06,2341.15,0.04 1932.86,2339.95,0.04 1933.66,2339.55,0.04 1934.46,2339.95,0.04 1935.26,2341.15,0.04" />
    </edge>
    <edge id=":C_0" function="internal">
        <lane id=":C_0_0" index="0" speed="6.51" length="9.03" shape="1804.20,1798.60,0.65 1801.75,1798.95,0.64 1800.00,1800.00,0.64 1798.95,1801.75,0.63 1798.60,1804.20,0.62" />
        <lane id=":C_0_1" index="1" speed="8.00" length="14.19" shape="1804.20,1795.40,0.65 1800.35,1795.95,0.64 1797.60,1797.60,0.64 1795.95,1800.35,0.63 1795.40,1804.20,0.62" />
        <lane id=":C_0_2" index="2" speed="9.26" length="19.35" shape="1804.20,1792.20,0.65 1798.95,1792.95,0.64 1795.20,1795.20,0.64 1792.95,1798.95,0.63 1792.20,1804.20,0.62" />
        <lane id=":C_0_3" index="3" speed="10.36" length="24.51" shape="1804.20,1789.00,0.65 1797.55,1789.95,0.64 1792.80,1792.80,0.64 1789.95,1797.55,0.63 1789.00,1804.20,0.62" />
    </edge>
    <edge id=":C_4" function="internal">
        <lane id=":C_4_0" index="0" speed="22.35" length="33.60" shape="1798.60,1770.60,0.65 1798.60,1804.20,0.62" />
        <lane id=":C_4_1" index="1" speed="22.35" length="33.60" shape="1795.40,1770.60,0.65 1795.40,1804.20,0.62" />
        <lane id=":C_4_2" index="2" speed="22.35" length="33.60" shape="1792.20,1770.60,0.65 1792.20,1804.20,0.62" />
        <lane id=":C_4_3" index="3" speed="22.35" length="33.60" shape="1789.00,1770.60,0.65 1789.00,1804.20,0.62" />
    </edge>
    <edge id=":C_8" function="internal">
        <lane id=":C_8_0" index="0" speed="12.38" length="35.45" shape="1783.40,1776.20,0.64 1790.05,1777.95,0.64 1794.80,1783.20,0.64 1797.65,1791.95,0.63 1798.60,1804.20,0.62" />
        <lane id=":C_8_1" index="1" speed="11.49" length="30.39" shape="1783.40,1779.40,0.64 1788.65,1780.95,0.64 1792.40,1785.60,0.64 1794.65,1793.35,0.63 1795.40,1804.20,0.62" />
        <lane id=":C_8_2" index="2" speed="10.54" length="25.39" shape="1783.40,1782.60,0.64 1787.25,1783.95,0.64 1790.00,1788.00,0.64 1791.65,1794.75,0.63 1792.20,1804.20,0.62" />
        <lane id=":C_8_3" index="3" speed="9.51" length="20.48" shape="1783.40,1785.80,0.64 1785.85,1786.95,0.64 1787.60,1790.40,0.64 1788.65,1796.15,0.63 1789.00,1804.20,0.62" />
    </edge>
    <edge id=":D_0" function="internal">
        <lane id=":D_0_0" index="0" speed="6.51" length="9.03" shape="1732.60,2497.80,-0.07 1732.25,2495.35,-0.07 1731.20,2493.60,-0.07 1729.45,2492.55,-0.07 1727.00,2492.20,-0.07" />
    </edge>
    <edge id=":D_1" function="internal">
        <lane id=":D_1_0" index="0" speed="13.41" length="20.80" shape="1732.60,2497.80,-0.07 1732.60,2477.00,-0.07" />
        <lane id=":D_1_1" index="1" speed="13.41" length="20.80" shape="1735.80,2497.80,-0.07 1735.80,2477.00,-0.07" />
    </edge>
    <edge id=":D_3" function="internal">
        <lane id=":D_3_0" index="0" speed="9.26" length="5.01" shape="1735.80,2497.80,-0.07 1736.51,2492.84,-0.07" />
    </edge>
    <edge id=":D_4" function="internal">
        <lane id=":D_4_0" index="0" speed="3.65" length="1.44" shape="1735.80,2497.80,-0.07 1736.60,2496.60,-0.07" />
    </edge>
    <edge id=":D_20" function="internal">
        <lane id=":D_20_0" index="0" speed="9.26" length="14.34" shape="1736.51,2492.84,-0.07 1736.55,2492.55,-0.07 1738.80,2488.80,-0.07 1742.55,2486.55,-0.07 1747.80,2485.80,-0.07" />
    </edge>
    <edge id=":D_21" function="internal">
        <lane id=":D_21_0" index="0" speed="3.65" length="3.23" shape="1736.60,2496.60,-0.07 1737.40,2496.20,-0.07 1738.20,2496.60,-0.07 1739.00,2497.80,-0.07" />
    </edge>
    <edge id=":D_5" function="internal">
        <lane id=":D_5_0" index="0" speed="6.51" length="9.03" shape="1747.80,2492.20,-0.07 1745.35,2492.55,-0.07 1743.60,2493.60,-0.07 1742.55,2495.35,-0.07 1742.20,2497.80,-0.07" />
    </edge>
    <edge id=":D_6" function="internal">
        <lane id=":D_6_0" index="0" speed="13.41" length="20.80" shape="1747.80,2492.20,-0.07 1727.00,2492.20,-0.07" />
        <lane id=":D_6_1" index="1" speed="13.41" length="20.80" shape="1747.80,2489.00,-0.07 1727.00,2489.00,-0.07" />
    </edge>
    <edge id=":D_8" function="internal">
        <lane id=":D_8_0" index="0" speed="9.26" length="5.01" shape="1747.80,2489.00,-0.07 1742.84,2488.30,-0.07" />
    </edge>
    <edge id=":D_9" function="internal">
        <lane id=":D_9_0" index="0" speed="3.65" length="1.44" shape="1747.80,2489.00,-0.07 1746.60,2488.20,-0.07" />
    </edge>
    <edge id=":D_22" function="internal">
        <lane id=":D_22_0" index="0" speed="9.26" length="14.34" shape="1742.84,2488.30,-0.07 1742.55,2488.25,-0.07 1738.80,2486.00,-0.07 1736.55,2482.25,-0.07 1735.80,2477.00,-0.07" />
    </edge>
    <edge id=":D_23" function="internal">
        <lane id=":D_23_0" index="0" speed="3.65" length="3.23" shape="1746.60,2488.20,-0.07 1746.20,2487.40,-0.07 1746.60,2486.60,-0.07 1747.80,2485.80,-0.07" />
    </edge>
    <edge id=":D_10" function="internal">
        <lane id=":D_10_0" index="0" speed="6.51" length="9.03" shape="1742.20,2477.00,-0.07 1742.55,2479.45,-0.07 1743.60,2481.20,-0.07 1745.35,2482.25,-0.07 1747.80,2482.60,-0.07" />
    </edge>
    <edge id=":D_11" function="internal">
        <lane id=":D_11_0" index="0" speed="13.41" length="20.80" shape="1742.20,2477.00,-0.07 1742.20,2497.80,-0.07" />
        <lane id=":D_11_1" index="1" speed="13.41" length="20.80" shape="1739.00,2477.00,-0.07 1739.00,2497.80,-0.07" />
    </edge>
    <edge id=":D_13" function="internal">
        <lane id=":D_13_0" index="0" speed="9.26" length="5.01" shape="1739.00,2477.00,-0.07 1738.30,2481.97,-0.07" />
    </edge>
    <edge id=":D_14" function="internal">
        <lane id=":D_14_0" index="0" speed="3.65" length="1.44" shape="1739.00,2477.00,-0.07 1738.20,2478.20,-0.07" />
    </edge>
    <edge id=":D_24" function="internal">
        <lane id=":D_24_0" index="0" speed="9.26" length="14.34" shape="1738.30,2481.97,-0.07 1738.25,2482.25,-0.07 1736.00,2486.00,-0.07 1732.25,2488.25,-0.07 1727.00,2489.00,-0.07" />
    </edge>
    <edge id=":D_25" function="internal">
        <lane id=":D_25_0" index="0" speed="3.65" length="3.23" shape="1738.20,2478.20,-0.07 1737.40,2478.60,-0.07 1736.60,2478.20,-0.07 1735.80,2477.00,-0.07" />
    </edge>
    <edge id=":D_15" function="internal">
        <lane id=":D_15_0" index="0" speed="6.51" length="9.03" shape="1727.00,2482.60,-0.07 1729.45,2482.25,-0.07 1731.20,2481.20,-0.07 1732.25,2479.45,-0.07 1732.60,2477.00,-0.07" />
    </edge>
    <edge id=":D_16" function="internal">
        <lane id=":D_16_0" index="0" speed="13.41" length="20.80" shape="1727.00,2482.60,-0.07 1747.80,2482.60,-0.07" />
        <lane id=":D_16_1" index="1" speed="13.41" length="20.80" shape="1727.00,2485.80,-0.07 1747.80,2485.80,-0.07" />
    </edge>
    <edge id=":D_18" function="internal">
        <lane id=":D_18_0" index="0" speed="9.26" length="5.01" shape="1727.00,2485.80,-0.07 1731.97,2486.51,-0.07" />
    </edge>
    <edge id=":D_19" function="internal">
        <lane id=":D_19_0" index="0" speed="3.65" length="1.44" shape="1727.00,2485.80,-0.07 1728.20,2486.60,-0.07" />
    </edge>
    <edge id=":D_26" function="internal">
        <lane id=":D_26_0" index="0" speed="9.26" length="14.34" shape="1731.97,2486.51,-0.07 1732.25,2486.55,-0.07 1736.00,2488.80,-0.07 1738.25,2492.55,-0.07 1739.00,2497.80,-0.07" />
    </edge>
    <edge id=":D_27" function="internal">
        <lane id=":D_27_0" index="0" speed="3.65" length="3.23" shape="1728.20,2486.60,-0.07 1728.60,2487.40,-0.07 1728.20,2488.20,-0.07 1727.00,2489.00,-0.07" />
    </edge>
    <edge id=":DA_0" function="internal">
        <lane id=":DA_0_0" index="0" speed="3.65" length="4.67" shape="1735.80,2461.59,-0.05 1736.60,2460.39,-0.05 1737.40,2459.99,-0.05 1738.20,2460.39,-0.05 1739.00,2461.59,-0.05" />
    </edge>
    <edge id=":DB_0" function="internal">
        <lane id=":DB_0_0" index="0" speed="3.65" length="4.67" shape="1711.59,2489.00,-0.05 1710.39,2488.20,-0.05 1709.99,2487.40,-0.05 1710.39,2486.60,-0.05 1711.59,2485.80,-0.05" />
    </edge>
    <edge id=":DC_0" function="internal">
        <lane id=":DC_0_0" index="0" speed="3.65" length="4.67" shape="1739.00,2513.22,-0.05 1738.20,2514.42,-0.05 1737.40,2514.82,-0.05 1736.60,2514.42,-0.05 1735.80,2513.22,-0.05" />
    </edge>
    <edge id=":TL_0" function="internal">
        <lane id=":TL_0_0" index="0" speed="7.33" length="11.73" shape="1804.20,2495.40,0.01 1800.35,2495.75,0.00 1797.60,2496.80,0.00 1795.95,2498.55,0.00 1795.40,2501.00" />
    </edge>
    <edge id=":TL_1" function="internal">
        <lane id=":TL_1_0" index="0" speed="13.41" length="21.12" shape="1804.20,2495.40,0.01 1797.92,2494.90,0.00 1793.61,2493.80,-0.00 1789.39,2492.70,-0.00 1783.40,2492.20,-0.01" />
        <lane id=":TL_1_1" index="1" speed="13.41" length="21.12" shape="1804.20,2492.20,0.01 1797.92,2491.70,0.00 1793.61,2490.60,-0.00 1789.39,2489.50,-0.00 1783.40,2489.00,-0.01" />
    </edge>
    <edge id=":TL_3" function="internal">
        <lane id=":TL_3_0" index="0" speed="3.65" length="1.44" shape="1804.20,2489.00,0.01 1803.00,2488.20,0.01" />
    </edge>
    <edge id=":TL_13" function="internal">
        <lane id=":TL_13_0" index="0" speed="3.65" length="3.23" shape="1803.00,2488.20,0.01 1802.60,2487.40,0.01 1803.00,2486.60,0.01 1804.20,2485.80,0.01" />
    </edge>
    <edge id=":TL_4" function="internal">
        <lane id=":TL_4_0" index="0" speed="6.51" length="9.03" shape="1798.60,2477.00,0.01 1798.95,2479.45,0.01 1800.00,2481.20,0.01 1801.75,2482.25,0.01 1804.20,2482.60,0.01" />
    </edge>
    <edge id=":TL_5" function="internal">
        <lane id=":TL_5_0" index="0" speed="22.35" length="24.28" shape="1798.60,2477.00,0.01 1798.10,2484.16,0.01 1797.00,2489.00,0.00 1795.90,2493.85,0.00 1795.40,2501.00" />
        <lane id=":TL_5_1" index="1" speed="22.35" length="24.28" shape="1795.40,2477.00,0.01 1794.90,2484.16,0.01 1793.80,2489.00,0.00 1792.70,2493.85,0.00 1792.20,2501.00" />
        <lane id=":TL_5_2" index="2" speed="22.35" length="24.28" shape="1792.20,2477.00,0.01 1791.70,2484.16,0.01 1790.60,2489.00,0.00 1789.50,2493.85,0.00 1789.00,2501.00" />
    </edge>
    <edge id=":TL_8" function="internal">
        <lane id=":TL_8_0" index="0" speed="8.10" length="14.57" shape="1789.00,2477.00,0.01 1788.65,2482.25,0.00 1787.60,2486.00,-0.00 1785.85,2488.25,-0.00 1783.40,2489.00,-0.01" />
    </edge>
    <edge id=":TL_9" function="internal">
        <lane id=":TL_9_0" index="0" speed="13.41" length="20.80" shape="1783.40,2482.60,-0.01 1804.20,2482.60,0.01" />
        <lane id=":TL_9_1" index="1" speed="13.41" length="20.80" shape="1783.40,2485.80,-0.01 1804.20,2485.80,0.01" />
    </edge>
    <edge id=":TL_11" function="internal">
        <lane id=":TL_11_0" index="0" speed="8.83" length="2.41" shape="1783.40,2485.80,-0.01 1785.65,2486.68,-0.01" />
    </edge>
    <edge id=":TL_12" function="internal">
        <lane id=":TL_12_0" index="0" speed="3.65" length="1.44" shape="1783.40,2485.80,-0.01 1784.60,2486.60,-0.01" />
    </edge>
    <edge id=":TL_14" function="internal">
        <lane id=":TL_14_0" index="0" speed="8.83" length="15.09" shape="1785.65,2486.68,-0.01 1785.85,2486.75,-0.01 1787.60,2489.60,-0.00 1788.65,2494.35,-0.00 1789.00,2501.00" />
    </edge>
    <edge id=":TL_15" function="internal">
        <lane id=":TL_15_0" index="0" speed="3.65" length="3.23" shape="1784.60,2486.60,-0.01 1785.00,2487.40,-0.01 1784.60,2488.20,-0.01 1783.40,2489.00,-0.01" />
    </edge>

    <edge id="A2AA" from="A" to="AA" priority="-1">
        <lane id="A2AA_0" index="0" speed="22.35" length="574.76" shape="1783.40,3074.17,-11.99 1208.64,3074.17,-11.99" />
        <lane id="A2AA_1" index="1" speed="22.35" length="574.76" shape="1783.40,3070.97,-11.99 1208.64,3070.97,-11.99" />
        <lane id="A2AA_2" index="2" speed="22.35" length="574.76" shape="1783.40,3067.77,-11.99 1208.64,3067.77,-11.99" />
    </edge>
    <edge id="A2AB" from="A" to="AB" priority="-1">
        <lane id="A2AB_0" index="0" speed="22.35" length="565.16" shape="1795.40,3079.77,-11.99 1795.40,3644.93,-11.99" />
        <lane id="A2AB_1" index="1" speed="22.35" length="565.16" shape="1792.20,3079.77,-11.99 1792.20,3644.93,-11.99" />
        <lane id="A2AB_2" index="2" speed="22.35" length="565.16" shape="1789.00,3079.77,-11.99 1789.00,3644.93,-11.99" />
    </edge>
    <edge id="A2AC" from="A" to="AC" priority="-1">
        <lane id="A2AC_0" index="0" speed="22.35" length="565.16" shape="1801.00,3058.17,-11.99 2366.17,3058.17,-11.99" />
        <lane id="A2AC_1" index="1" speed="22.35" length="565.16" shape="1801.00,3061.37,-11.99 2366.17,3061.37,-11.99" />
        <lane id="A2AC_2" index="2" speed="22.35" length="565.16" shape="1801.00,3064.57,-11.99 2366.17,3064.57,-11.99" />
    </edge>
    <edge id="B2BA" from="B" to="BA" priority="-1">
        <lane id="B2BA_0" index="0" speed="13.41" length="132.65" shape="1938.46,2501.00,0.04 1938.46,2633.66,0.04" />
        <lane id="B2BA_1" index="1" speed="13.41" length="132.65" shape="1935.26,2501.00,0.04 1935.26,2633.66,0.04" />
    </edge>
    <edge id="B2BB" from="B" to="BB" priority="-1">
        <lane id="B2BB_0" index="0" speed="13.41" length="132.65" shape="1947.26,2482.60,0.04 2079.91,2482.60,0.04" />
        <lane id="B2BB_1" index="1" speed="13.41" length="132.65" shape="1947.26,2485.80,0.04 2079.91,2485.80,0.04" />
    </edge>
    <edge id="B2BC" from="B" to="BC" priority="-1">
        <lane id="B2BC_0" index="0" speed="13.41" length="135.85" shape="1928.86,2477.00,0.04 1928.86,2341.15,0.04" />
        <lane id="B2BC_1" index="1" speed="13.41" length="135.85" shape="1932.06,2477.00,0.04 1932.06,2341.15,0.04" />
    </edge>
    <edge id="B2TL" from="B" to="TL" priority="-1">
        <lane id="B2TL_0" index="0" speed="13.41" length="115.85" shape="1920.06,2495.40,0.04 1804.20,2495.40,0.01" />
        <lane id="B2TL_1" index="1" speed="13.41" length="115.85" shape="1920.06,2492.20,0.04 1804.20,2492.20,0.01" />
        <lane id="B2TL_2" index="2" speed="13.41" length="115.85" shape="1920.06,2489.00,0.04 1804.20,2489.00,0.01" />
    </edge>
    <edge id="BA2B" from="BA" to="B" priority="-1">
        <lane id="BA2B_0" index="0" speed="13.41" length="132.65" shape="1925.66,2633.66,0.04 1925.66,2501.00,0.04" />
        <lane id="BA2B_1" index="1" speed="13.41" length="132.65" shape="1928.86,2633.66,0.04 1928.86,2501.00,0.04" />
        <lane id="BA2B_2" index="2" speed="13.41" length="132.65" shape="1932.06,2633.66,0.04 1932.06,2501.00,0.04" />
    </edge>
    <edge id="BB2B" from="BB" to="B" priority="-1">
        <lane id="BB2B_0" index="0" speed="13.41" length="132.65" shape="2079.91,2495.40,0.04 1947.26,2495.40,0.04" />
        <lane id="BB2B_1" index="1" speed="13.41" length="132.65" shape="2079.91,2492.20,0.04 1947.26,2492.20,0.04" />
        <lane id="BB2B_2" index="2" speed="13.41" length="132.65" shape="2079.91,2489.00,0.04 1947.26,2489.00,0.04" />
    </edge>
    <edge id="BC2B" from="BC" to="B" priority="-1">
        <lane id="BC2B_0" index="0" speed="13.41" length="135.85" shape="1941.66,2341.15,0.04 1941.66,2477.00,0.04" />
        <lane id="BC2B_1" index="1" speed="13.41" length="135.85" shape="1938.46,2341.15,0.04 1938.46,2477.00,0.04" />
        <lane id="BC2B_2" index="2" speed="13.41" length="135.85" shape="1935.26,2341.15,0.04 1935.26,2477.00,0.04" />
    </edge>
    <edge id="C2TL" from="C" to="TL" priority="-1">
        <lane id="C2TL_0" index="0" speed="22.35" length="672.80" shape="1798.60,1804.20,0.62 1798.60,2477.00,0.01" />
        <lane id="C2TL_1" index="1" speed="22.35" length="672.80" shape="1795.40,1804.20,0.62 1795.40,2477.00,0.01" />
        <lane id="C2TL_2" index="2" speed="22.35" length="672.80" shape="1792.20,1804.20,0.62 1792.20,2477.00,0.01" />
        <lane id="C2TL_3" index="3" speed="22.35" length="672.80" shape="1789.00,1804.20,0.62 1789.00,2477.00,0.01" />
    </edge>
    <edge id="CA2C" from="CA" to="C" priority="-1">
        <lane id="CA2C_0" index="0" speed="22.35" length="1770.60" shape="3574.81,1798.60,1.63 1804.20,1798.60,0.65" />
        <lane id="CA2C_1" index="1" speed="22.35" length="1770.60" shape="3574.81,1795.40,1.63 1804.20,1795.40,0.65" />
        <lane id="CA2C_2" index="2" speed="22.35" length="1770.60" shape="3574.81,1792.20,1.63 1804.20,1792.20,0.65" />
        <lane id="CA2C_3" index="3" speed="22.35" length="1770.60" shape="3574.81,1789.00,1.63 1804.20,1789.00,0.65" />
    </edge>
    <edge id="CB2C" from="CB" to="C" priority="-1">
        <lane id="CB2C_0" index="0" speed="22.35" length="1770.60" shape="1798.60,0.00,1.63 1798.60,1770.60,0.65" />
        <lane id="CB2C_1" index="1" speed="22.35" length="1770.60" shape="1795.40,0.00,1.63 1795.40,1770.60,0.65" />
        <lane id="CB2C_2" index="2" speed="22.35" length="1770.60" shape="1792.20,0.00,1.63 1792.20,1770.60,0.65" />
        <lane id="CB2C_3" index="3" speed="22.35" length="1770.60" shape="1789.00,0.00,1.63 1789.00,1770.60,0.65" />
    </edge>
    <edge id="CC2C" from="CC" to="C" priority="-1">
        <lane id="CC2C_0" index="0" speed="22.35" length="1783.40" shape="0.00,1776.20,1.63 1783.40,1776.20,0.64" />
        <lane id="CC2C_1" index="1" speed="22.35" length="1783.40" shape="0.00,1779.40,1.63 1783.40,1779.40,0.64" />
        <lane id="CC2C_2" index="2" speed="22.35" length="1783.40" shape="0.00,1782.60,1.63 1783.40,1782.60,0.64" />
        <lane id="CC2C_3" index="3" speed="22.35" length="1783.40" shape="0.00,1785.80,1.63 1783.40,1785.80,0.64" />
    </edge>
    <edge id="D2DA" from="D" to="DA" priority="-1">
        <lane id="D2DA_0" index="0" speed="13.41" length="15.41" shape="1732.60,2477.00,-0.07 1732.60,2461.59,-0.05" />
        <lane id="D2DA_1" index="1" speed="13.41" length="15.41" shape="1735.80,2477.00,-0.07 1735.80,2461.59,-0.05" />
    </edge>
    <edge id="D2DB" from="D" to="DB" priority="-1">
        <lane id="D2DB_0" index="0" speed="13.41" length="15.41" shape="1727.00,2492.20,-0.07 1711.59,2492.20,-0.05" />
        <lane id="D2DB_1" index="1" speed="13.41" length="15.41" shape="1727.00,2489.00,-0.07 1711.59,2489.00,-0.05" />
    </edge>
    <edge id="D2DC" from="D" to="DC" priority="-1">
        <lane id="D2DC_0" index="0" speed="13.41" length="15.41" shape="1742.20,2497.80,-0.07 1742.20,2513.22,-0.05" />
        <lane id="D2DC_1" index="1" speed="13.41" length="15.41" shape="1739.00,2497.80,-0.07 1739.00,2513.22,-0.05" />
    </edge>
    <edge id="D2TL" from="D" to="TL" priority="-1">
        <lane id="D2TL_0" index="0" speed="13.41" length="35.60" shape="1747.80,2482.60,-0.07 1783.40,2482.60,-0.01" />
        <lane id="D2TL_1" index="1" speed="13.41" length="35.60" shape="1747.80,2485.80,-0.07 1783.40,2485.80,-0.01" />
    </edge>
    <edge id="DA2D" from="DA" to="D" priority="-1">
        <lane id="DA2D_0" index="0" speed="13.41" length="15.41" shape="1742.20,2461.59,-0.05 1742.20,2477.00,-0.07" />
        <lane id="DA2D_1" index="1" speed="13.41" length="15.41" shape="1739.00,2461.59,-0.05 1739.00,2477.00,-0.07" />
    </edge>
    <edge id="DB2D" from="DB" to="D" priority="-1">
        <lane id="DB2D_0" index="0" speed="13.41" length="15.41" shape="1711.59,2482.60,-0.05 1727.00,2482.60,-0.07" />
        <lane id="DB2D_1" index="1" speed="13.41" length="15.41" shape="1711.59,2485.80,-0.05 1727.00,2485.80,-0.07" />
    </edge>
    <edge id="DC2D" from="DC" to="D" priority="-1">
        <lane id="DC2D_0" index="0" speed="13.41" length="15.41" shape="1732.60,2513.22,-0.05 1732.60,2497.80,-0.07" />
        <lane id="DC2D_1" index="1" speed="13.41" length="15.41" shape="1735.80,2513.22,-0.05 1735.80,2497.80,-0.07" />
    </edge>
    <edge id="TL2A" from="TL" to="A" priority="-1">
        <lane id="TL2A_0" index="0" speed="22.35" length="551.69" shape="1795.40,2501.00 1795.40,3052.57,-11.99" />
        <lane id="TL2A_1" index="1" speed="22.35" length="551.69" shape="1792.20,2501.00 1792.20,3052.57,-11.99" />
        <lane id="TL2A_2" index="2" speed="22.35" length="551.69" shape="1789.00,2501.00 1789.00,3052.57,-11.99" />
    </edge>
    <edge id="TL2B" from="TL" to="B" priority="-1">
        <lane id="TL2B_0" index="0" speed="13.41" length="115.85" shape="1804.20,2482.60,0.01 1920.06,2482.60,0.04" />
        <lane id="TL2B_1" index="1" speed="13.41" length="115.85" shape="1804.20,2485.80,0.01 1920.06,2485.80,0.04" />
    </edge>
    <edge id="TL2D" from="TL" to="D" priority="-1">
        <lane id="TL2D_0" index="0" speed="13.41" length="35.60" shape="1783.40,2492.20,-0.01 1747.80,2492.20,-0.07" />
        <lane id="TL2D_1" index="1" speed="13.41" length="35.60" shape="1783.40,2489.00,-0.01 1747.80,2489.00,-0.07" />
    </edge>

    <tlLogic id="A" type="static" programID="0" offset="0">
        <phase duration="80" state="GGGGGGGGG" />
        <phase duration="5" state="yyyyyyyyy" />
        <phase duration="5" state="rrrrrrrrr" />
    </tlLogic>
    <tlLogic id="B" type="static" programID="0" offset="0">
        <phase duration="38" state="GGGrrrrrrrrGGGrrrrrrr" />
        <phase duration="3" state="yyyrrrrrrrryyyrrrrrrr" />
        <phase duration="6" state="rrrGGrrrrrrrrrGGrrrrr" />
        <phase duration="3" state="rrryyrrrrrrrrryyrrrrr" />
        <phase duration="37" state="rrrrrGGGGggrrrrrGGGgg" />
        <phase duration="3" state="rrrrryyyyyyrrrrryyyyy" />
    </tlLogic>
    <tlLogic id="BA" type="static" programID="0" offset="0">
        <phase duration="82" state="G" />
        <phase duration="3" state="y" />
        <phase duration="5" state="r" />
    </tlLogic>
    <tlLogic id="BB" type="static" programID="0" offset="0">
        <phase duration="82" state="G" />
        <phase duration="3" state="y" />
        <phase duration="5" state="r" />
    </tlLogic>
    <tlLogic id="BC" type="static" programID="0" offset="0">