<net xmlns:xsi="http://www.w3.org/2001/XMLSchema-instance" version="1.9" junctionCornerDetail="5" limitTurnSpeed="5.50" xsi:noNamespaceSchemaLocation="http://sumo.dlr.de/xsd/net_file.xsd">

    <location netOffset="608.95,615.02" convBoundary="0.00,0.00,1247.97,1212.13" origBoundary="-608.95,-615.02,639.03,597.11" projParameter="!" />

    <edge id=":A_0" function="internal">
        <lane id=":A_0_0" index="0" speed="8.10" length="14.57" shape="600.95,927.17,5.28 600.60,921.92,5.28 599.55,918.17,5.28 597.80,915.92,5.28 595.35,915.17,5.28" />
    </edge>
    <edge id=":A_1" function="internal">
        <lane id=":A_1_0" index="0" speed="13.41" length="27.20" shape="600.95,927.17,5.28 600.95,899.97,5.28" />
        <lane id=":A_1_1" index="1" speed="13.41" length="27.20" shape="604.15,927.17,5.28 604.15,899.97,5.28" />
        <lane id=":A_1_2" index="2" speed="13.41" length="27.20" shape="607.35,927.17,5.28 607.35,899.97,5.28" />
    </edge>
    <edge id=":A_4" function="internal">
        <lane id=":A_4_0" index="0" speed="9.32" length="7.05" shape="607.35,927.17,5.28 607.90,920.52,5.28 608.02,920.16,5.28" />
    </edge>
    <edge id=":A_5" function="internal">
        <lane id=":A_5_0" index="0" speed="3.65" length="1.44" shape="607.35,927.17,5.28 608.15,925.97,5.28" />
    </edge>
    <edge id=":A_18" function="internal">
        <lane id=":A_18_0" index="0" speed="9.32" length="12.57" shape="608.02,920.16,5.28 609.55,915.77,5.28 612.30,912.92,5.28 616.15,911.97,5.28" />
    </edge>
    <edge id=":A_19" function="internal">
        <lane id=":A_19_0" index="0" speed="3.65" length="3.23" shape="608.15,925.97,5.28 608.95,925.57,5.28 609.75,925.97,5.28 610.55,927.17,5.28" />
    </edge>
    <edge id=":A_6" function="internal">
        <lane id=":A_6_0" index="0" speed="6.51" length="9.03" shape="616.15,921.57,5.28 613.70,921.92,5.28 611.95,922.97,5.28 610.90,924.72,5.28 610.55,927.17,5.28" />
    </edge>
    <edge id=":A_7" function="internal">
        <lane id=":A_7_0" index="0" speed="13.41" length="21.09" shape="616.15,918.37,5.28 609.16,917.87,5.28 603.68,916.77,5.28 599.23,915.67,5.28 595.35,915.17,5.28" />
    </edge>
    <edge id=":A_8" function="internal">
        <lane id=":A_8_0" index="0" speed="9.32" length="4.12" shape="616.15,915.17,5.28 612.30,914.22,5.28 612.19,914.11,5.28" />
    </edge>
    <edge id=":A_9" function="internal">
        <lane id=":A_9_0" index="0" speed="3.65" length="1.44" shape="616.15,915.17,5.28 614.95,914.37,5.28" />
    </edge>
    <edge id=":A_20" function="internal">
        <lane id=":A_20_0" index="0" speed="9.32" length="15.51" shape="612.19,914.11,5.28 609.55,911.37,5.28 607.90,906.62,5.28 607.35,899.97,5.28" />
    </edge>
    <edge id=":A_21" function="internal">
        <lane id=":A_21_0" index="0" speed="3.65" length="3.23" shape="614.95,914.37,5.28 614.55,913.57,5.28 614.95,912.77,5.28 616.15,911.97,5.28" />
    </edge>
    <edge id=":A_10" function="internal">
        <lane id=":A_10_0" index="0" speed="8.10" length="14.57" shape="610.55,899.97,5.28 610.90,905.22,5.28 611.95,908.97,5.28 613.70,911.22,5.28 616.15,911.97,5.28" />
    </edge>
    <edge id=":A_11" function="internal">
        <lane id=":A_11_0" index="0" speed="13.41" length="27.20" shape="610.55,899.97,5.28 610.55,927.17,5.28" />
    </edge>
    <edge id=":A_12" function="internal">
        <lane id=":A_12_0" index="0" speed="10.36" length="5.01" shape="610.55,899.97,5.28 609.84,904.94,5.28" />
    </edge>
    <edge id=":A_13" function="internal">
        <lane id=":A_13_0" index="0" speed="3.65" length="1.44" shape="610.55,899.97,5.28 609.75,901.17,5.28" />
    </edge>
    <edge id=":A_22" function="internal">
        <lane id=":A_22_0" index="0" speed="10.36" length="19.50" shape="609.84,904.94,5.28 609.60,906.62,5.28 606.75,911.37,5.28 602.00,914.22,5.28 595.35,915.17,5.28" />
    </edge>
    <edge id=":A_23" function="internal">
        <lane id=":A_23_0" index="0" speed="3.65" length="3.23" shape="609.75,901.17,5.28 608.95,901.57,5.28 608.15,901.17,5.28 607.35,899.97,5.28" />
    </edge>
    <edge id=":A_14" function="internal">
        <lane id=":A_14_0" index="0" speed="6.51" length="9.03" shape="595.35,905.57,5.28 597.80,905.22,5.28 599.55,904.17,5.28 600.60,902.42,5.28 600.95,899.97,5.28" />
    </edge>
    <edge id=":A_15" function="internal">
        <lane id=":A_15_0" index="0" speed="13.41" length="21.09" shape="595.35,908.77,5.28 602.33,909.27,5.28 607.82,910.37,5.28 612.27,911.47,5.28 616.15,911.97,5.28" />
    </edge>
    <edge id=":A_16" function="internal">
        <lane id=":A_16_0" index="0" speed="10.36" length="9.32" shape="595.35,911.97,5.28 602.00,912.92,5.28 604.23,914.26,5.28" />
    </edge>
    <edge id=":A_17" function="internal">
        <lane id=":A_17_0" index="0" speed="3.65" length="1.44" shape="595.35,911.97,5.28 596.55,912.77,5.28" />
    </edge>
    <edge id=":A_24" function="internal">
        <lane id=":A_24_0" index="0" speed="10.36" length="15.19" shape="604.23,914.26,5.28 606.75,915.77,5.28 609.60,920.52,5.28 610.55,927.17,5.28" />
    </edge>
    <edge id=":A_25" function="internal">
        <lane id=":A_25_0" index="0" speed="3.65" length="3.23" shape="596.55,912.77,5.28 596.95,913.57,5.28 596.55,914.37,5.28 595.35,915.17,5.28" />
    </edge>
    <edge id=":AA_0" function="internal">
        <lane id=":AA_0_0" index="0" speed="3.65" length="4.67" shape="310.39,915.17,5.28 309.19,914.37,5.28 308.79,913.57,5.28 309.19,912.77,5.28 310.39,911.97,5.28" />
    </edge>
    <edge id=":AB_0" function="internal">
        <lane id=":AB_0_0" index="0" speed="3.65" length="4.67" shape="610.55,1212.13,5.28 609.75,1213.33,5.28 608.95,1213.73,5.28 608.15,1213.33,5.28 607.35,1212.13,5.28" />
    </edge>
    <edge id=":AC_0" function="internal">
        <lane id=":AC_0_0" index="0" speed="3.65" length="4.67" shape="907.50,911.97,5.28 908.70,912.77,5.28 909.10,913.57,5.28 908.70,914.37,5.28 907.50,915.17,5.28" />
    </edge>
    <edge id=":A_intern_0" function="internal">
        <lane id=":A_intern_0_0" index="0" speed="13.41" length="8.61" shape="600.95,669.02,0.96 600.45,666.56,0.92 599.35,665.02,0.89 598.25,663.48,0.85 597.75,661.02,0.81" />
        <lane id=":A_intern_0_1" index="1" speed="13.41" length="8.61" shape="604.15,669.02,0.96 603.65,666.56,0.92 602.55,665.02,0.89 601.45,663.48,0.85 600.95,661.02,0.81" />
        <lane id=":A_intern_0_2" index="2" speed="13.41" length="8.61" shape="607.35,669.02,0.96 606.85,666.56,0.92 605.75,665.02,0.89 604.65,663.48,0.85 604.15,661.02,0.81" />
        <lane id=":A_intern_0_3" index="3" speed="13.41" length="8.61" shape="607.35,669.02,0.96 607.35,661.02,0.81" />
    </edge>
    <edge id=":B_0" function="internal">
        <lane id=":B_0_0" index="0" speed="6.51" length="9.03" shape="926.86,622.22,-5.16 926.51,619.77,-5.13 925.46,618.02,-5.10 923.71,616.97,-5.08 921.26,616.62,-5.05" />
    </edge>
    <edge id=":B_1" function="internal">
        <lane id=":B_1_0" index="0" speed="8.94" length="14.40" shape="926.86,622.22,-5.16 926.86,607.82,-5.16" />
    </edge>
    <edge id=":B_2" function="internal">
        <lane id=":B_2_0" index="0" speed="8.00" length="4.07" shape="926.86,622.22,-5.16 927.41,618.37,-5.16 927.50,618.22,-5.16" />
    </edge>
    <edge id=":B_3" function="internal">
        <lane id=":B_3_0" index="0" speed="3.65" length="1.44" shape="926.86,622.22,-5.16 927.66,621.02,-5.16" />
    </edge>
    <edge id=":B_16" function="internal">
        <lane id=":B_16_0" index="0" speed="8.00" length="10.13" shape="927.50,618.22,-5.16 929.06,615.62,-5.16 931.81,613.97,-5.16 935.66,613.42,-5.16" />
    </edge>
    <edge id=":B_17" function="internal">
        <lane id=":B_17_0" index="0" speed="3.65" length="3.23" shape="927.66,621.02,-5.16 928.46,620.62,-5.16 929.26,621.02,-5.16 930.06,622.22,-5.16" />
    </edge>
    <edge id=":B_4" function="internal">
        <lane id=":B_4_0" index="0" speed="6.51" length="9.03" shape="935.66,616.62,-5.16 933.21,616.97,-5.16 931.46,618.02,-5.16 930.41,619.77,-5.16 930.06,622.22,-5.16" />
    </edge>
    <edge id=":B_5" function="internal">
        <lane id=":B_5_0" index="0" speed="8.94" length="14.40" shape="935.66,616.62,-5.16 921.26,616.62,-5.05" />
    </edge>
    <edge id=":B_6" function="internal">
        <lane id=":B_6_0" index="0" speed="8.00" length="4.07" shape="935.66,616.62,-5.16 931.81,616.07,-5.16 931.66,615.98,-5.16" />
    </edge>
    <edge id=":B_7" function="internal">
        <lane id=":B_7_0" index="0" speed="3.65" length="1.44" shape="935.66,616.62,-5.16 934.46,615.82,-5.16" />
    </edge>
    <edge id=":B_18" function="internal">
        <lane id=":B_18_0" index="0" speed="8.00" length="10.13" shape="931.66,615.98,-5.16 929.06,614.42,-5.16 927.41,611.67,-5.16 926.86,607.82,-5.16" />
    </edge>
    <edge id=":B_19" function="internal">
        <lane id=":B_19_0" index="0" speed="3.65" length="3.23" shape="934.46,615.82,-5.16 934.06,615.02,-5.16 934.46,614.22,-5.16 935.66,613.42,-5.16" />
    </edge>
    <edge id=":B_8" function="internal">
        <lane id=":B_8_0" index="0" speed="6.51" length="9.03" shape="930.06,607.82,-5.16 930.41,610.27,-5.16 931.46,612.02,-5.16 933.21,613.07,-5.16 935.66,613.42,-5.16" />
    </edge>
    <edge id=":B_9" function="internal">
        <lane id=":B_9_0" index="0" speed="8.94" length="14.40" shape="930.06,607.82,-5.16 930.06,622.22,-5.16" />
    </edge>
    <edge id=":B_10" function="internal">
        <lane id=":B_10_0" index="0" speed="8.00" length="4.07" shape="930.06,607.82,-5.16 929.51,611.67,-5.13 929.42,611.82,-5.13" />
    </edge>
    <edge id=":B_11" function="internal">
        <lane id=":B_11_0" index="0" speed="3.65" length="1.44" shape="930.06,607.82,-5.16 929.26,609.02,-5.16" />
    </edge>
    <edge id=":B_20" function="internal">
        <lane id=":B_20_0" index="0" speed="8.00" length="10.13" shape="929.42,611.82,-5.13 927.86,614.42,-5.10 925.11,616.07,-5.08 921.26,616.62,-5.05" />
    </edge>
    <edge id=":B_21" function="internal">
        <lane id=":B_21_0" index="0" speed="3.65" length="3.23" shape="929.26,609.02,-5.16 928.46,609.42,-5.16 927.66,609.02,-5.16 926.86,607.82,-5.16" />
    </edge>
    <edge id=":B_12" function="internal">
        <lane id=":B_12_0" index="0" speed="6.51" length="9.03" shape="921.26,613.42,-5.05 923.71,613.07,-5.08 925.46,612.02,-5.10 926.51,610.27,-5.13 926.86,607.82,-5.16" />
    </edge>
    <edge id=":B_13" function="internal">
        <lane id=":B_13_0" index="0" speed="8.94" length="14.40" shape="921.26,613.42,-5.05 935.66,613.42,-5.16" />
    </edge>
    <edge id=":B_14" function="internal">
        <lane id=":B_14_0" index="0" speed="8.00" length="4.07" shape="921.26,613.42,-5.05 925.11,613.97,-5.08 925.26,614.06,-5.08" />
    </edge>
    <edge id=":B_15" function="internal">
        <lane id=":B_15_0" index="0" speed="3.65" length="1.44" shape="921.26,613.42,-5.05 922.46,614.22,-5.05" />
    </edge>
    <edge id=":B_22" function="internal">
        <lane id=":B_22_0" index="0" speed="8.00" length="10.13" shape="925.26,614.06,-5.08 927.86,615.62,-5.10 929.51,618.37,-5.13 930.06,622.22,-5.16" />
    </edge>
    <edge id=":B_23" function="internal">
        <lane id=":B_23_0" index="0" speed="3.65" length="3.23" shape="922.46,614.22,-5.05 922.86,615.02,-5.05 922.46,615.82,-5.05 921.26,616.62,-5.05" />
    </edge>
    <edge id=":BA_0" function="internal">
        <lane id=":BA_0_0" index="0" speed="3.65" length="4.67" shape="930.06,934.53,-5.16 929.26,935.73,-5.16 928.46,936.13,-5.16 927.66,935.73,-5.16 926.86,934.53,-5.16" />
    </edge>
    <edge id=":BB_0" function="internal">
        <lane id=":BB_0_0" index="0" speed="3.65" length="4.67" shape="1247.97,613.42,-5.16 1249.17,614.22,-5.16 1249.57,615.02,-5.16 1249.17,615.82,-5.16 1247.97,616.62,-5.16" />
    </edge>
    <edge id=":BC_0" function="internal">
        <lane id=":BC_0_0" index="0" speed="3.65" length="4.67" shape="926.86,295.51,-5.16 927.66,294.31,-5.16 928.46,293.91,-5.16 929.26,294.31,-5.16 930.06,295.51,-5.16" />
    </edge>
    <edge id=":C_0" function="internal">
        <lane id=":C_0_0" index="0" speed="6.51" length="9.03" shape="604.15,317.91,6.19 603.80,315.46,6.19 602.75,313.71,6.19 601.00,312.66,6.19 598.55,312.31,6.19" />
    </edge>
    <edge id=":C_1" function="internal">
        <lane id=":C_1_0" index="0" speed="13.41" length="20.80" shape="604.15,317.91,6.19 604.15,297.11,6.19" />
        <lane id=":C_1_1" index="1" speed="13.41" length="20.80" shape="607.35,317.91,6.19 607.35,297.11,6.19" />
    </edge>
    <edge id=":C_3" function="internal">
        <lane id=":C_3_0" index="0" speed="9.26" length="5.01" shape="607.35,317.91,6.19 608.06,312.95,6.19" />
    </edge>
    <edge id=":C_4" function="internal">
        <lane id=":C_4_0" index="0" speed="3.65" length="1.44" shape="607.35,317.91,6.19 608.15,316.71,6.19" />
    </edge>
    <edge id=":C_20" function="internal">
        <lane id=":C_20_0" index="0" speed="9.26" length="14.34" shape="608.06,312.95,6.19 608.10,312.66,6.19 610.35,308.91,6.19 614.10,306.66,6.19 619.35,305.91,6.19" />
    </edge>
    <edge id=":C_21" function="internal">
        <lane id=":C_21_0" index="0" speed="3.65" length="3.23" shape="608.15,316.71,6.19 608.95,316.31,6.19 609.75,316.71,6.19 610.55,317.91,6.19" />
    </edge>
    <edge id=":C_5" function="internal">
        <lane id=":C_5_0" index="0" speed="6.51" length="9.03" shape="619.35,312.31,6.19 616.90,312.66,6.19 615.15,313.71,6.19 614.10,315.46,6.19 613.75,317.91,6.19" />
    </edge>
    <edge id=":C_6" function="internal">
        <lane id=":C_6_0" index="0" speed="13.41" length="20.80" shape="619.35,312.31,6.19 598.55,312.31,6.19" />
        <lane id=":C_6_1" index="1" speed="13.41" length="20.80" shape="619.35,309.11,6.19 598.55,309.11,6.19" />
    </edge>
    <edge id=":C_8" function="internal">
        <lane id=":C_8_0" index="0" speed="9.26" length="5.01" shape="619.35,309.11,6.19 614.38,308.40,6.19" />
    </edge>
    <edge id=":C_9" function="internal">
        <lane id=":C_9_0" index="0" speed="3.65" length="1.44" shape="619.35,309.11,6.19 618.15,308.31,6.19" />
    </edge>
    <edge id=":C_22" function="internal">
        <lane id=":C_22_0" index="0" speed="9.26" length="14.34" shape="614.38,308.40,6.19 614.10,308.36,6.19 610.35,306.11,6.19 608.10,302.36,6.19 607.35,297.11,6.19" />
    </edge>
    <edge id=":C_23" function="internal">
        <lane id=":C_23_0" index="0" speed="3.65" length="3.23" shape="618.15,308.31,6.19 617.75,307.51,6.19 618.15,306.71,6.19 619.35,305.91,6.19" />
    </edge>
    <edge id=":C_10" function="internal">
        <lane id=":C_10_0" index="0" speed="6.51" length="9.03" shape="613.75,297.11,6.19 614.10,299.56,6.19 615.15,301.31,6.19 616.90,302.36,6.19 619.35,302.71,6.19" />
    </edge>
    <edge id=":C_11" function="internal">
        <lane id=":C_11_0" index="0" speed="13.41" length="20.80" shape="613.75,297.11,6.19 613.75,317.91,6.19" />
        <lane id=":C_11_1" index="1" speed="13.41" length="20.80" shape="610.55,297.11,6.19 610.55,317.91,6.19" />
    </edge>
    <edge id=":C_13" function="internal">
        <lane id=":C_13_0" index="0" speed="9.26" length="5.01" shape="610.55,297.11,6.19 609.84,302.07,6.19" />
    </edge>
    <edge id=":C_14" function="internal">
        <lane id=":C_14_0" index="0" speed="3.65" length="1.44" shape="610.55,297.11,6.19 609.75,298.31,6.19" />
    </edge>
    <edge id=":C_24" function="internal">
        <lane id=":C_24_0" index="0" speed="9.26" length="14.34" shape="609.84,302.07,6.19 609.80,302.36,6.19 607.55,306.11,6.19 603.80,308.36,6.19 598.55,309.11,6.19" />
    </edge>
    <edge id=":C_25" function="internal">
        <lane id=":C_25_0" index="0" speed="3.65" length="3.23" shape="609.75,298.31,6.19 608.95,298.71,6.19 608.15,298.31,6.19 607.35,297.11,6.19" />
    </edge>
    <edge id=":C_15" function="internal">
        <lane id=":C_15_0" index="0" speed="6.51" length="9.03" shape="598.55,302.71,6.19 601.00,302.36,6.19 602.75,301.31,6.19 603.80,299.56,6.19 604.15,297.11,6.19" />
    </edge>
    <edge id=":C_16" function="internal">
        <lane id=":C_16_0" index="0" speed="13.41" length="20.80" shape="598.55,302.71,6.19 619.35,302.71,6.19" />
        <lane id=":C_16_1" index="1" speed="13.41" length="20.80" shape="598.55,305.91,6.19 619.35,305.91,6.19" />
    </edge>
    <edge id=":C_18" function="internal">
        <lane id=":C_18_0" index="0" speed="9.26" length="5.01" shape="598.55,305.91,6.19 603.51,306.62,6.19" />
    </edge>
    <edge id=":C_19" function="internal">
        <lane id=":C_19_0" index="0" speed="3.65" length="1.44" shape="598.55,305.91,6.19 599.75,306.71,6.19" />
    </edge>
    <edge id=":C_26" function="internal">
        <lane id=":C_26_0" index="0" speed="9.26" length="14.34" shape="603.51,306.62,6.19 603.80,306.66,6.19 607.55,308.91,6.19 609.80,312.66,6.19 610.55,317.91,6.19" />
    </edge>
    <edge id=":C_27" function="internal">
        <lane id=":C_27_0" index="0" speed="3.65" length="3.23" shape="599.75,306.71,6.19 600.15,307.51,6.19 599.75,308.31,6.19 598.55,309.11,6.19" />
    </edge>
    <edge id=":CA_0" function="internal">
        <lane id=":CA_0_0" index="0" speed="3.65" length="4.67" shape="916.46,305.91,6.19 917.66,306.71,6.19 918.06,307.51,6.19 917.66,308.31,6.19 916.46,309.11,6.19" />
    </edge>
    <edge id=":CB_0" function="internal">
        <lane id=":CB_0_0" index="0" speed="3.65" length="4.67" shape="607.35,0.00,6.19 608.15,-1.20,6.19 608.95,-1.60,6.19 609.75,-1.20,6.19 610.55,0.00,6.19" />
    </edge>
    <edge id=":CC_0" function="internal">
        <lane id=":CC_0_0" index="0" speed="3.65" length="4.67" shape="301.44,309.11,6.19 300.24,308.31,6.19 299.84,307.51,6.19 300.24,306.71,6.19 301.44,305.91,6.19" />
    </edge>
    <edge id=":D_0" function="internal">
        <lane id=":D_0_0" index="0" speed="6.51" length="9.03" shape="302.87,622.22,5.75 302.52,619.77,5.75 301.47,618.02,5.75 299.72,616.97,5.75 297.27,616.62,5.75" />
    </edge>
    <edge id=":D_1" function="internal">
        <lane id=":D_1_0" index="0" speed="8.94" length="14.40" shape="302.87,622.22,5.75 302.87,607.82,5.75" />
    </edge>
    <edge id=":D_2" function="internal">
        <lane id=":D_2_0" index="0" speed="8.00" length="4.07" shape="302.87,622.22,5.75 303.42,618.37,5.72 303.51,618.22,5.71" />
    </edge>
    <edge id=":D_3" function="internal">
        <lane id=":D_3_0" index="0" speed="3.65" length="1.44" shape="302.87,622.22,5.75 303.67,621.02,5.75" />
    </edge>
    <edge id=":D_16" function="internal">
        <lane id=":D_16_0" index="0" speed="8.00" length="10.13" shape="303.51,618.22,5.71 305.07,615.62,5.69 307.82,613.97,5.65 311.67,613.42,5.62" />
    </edge>
    <edge id=":D_17" function="internal">
        <lane id=":D_17_0" index="0" speed="3.65" length="3.23" shape="303.67,621.02,5.75 304.47,620.62,5.75 305.27,621.02,5.75 306.07,622.22,5.75" />
    </edge>
    <edge id=":D_4" function="internal">
        <lane id=":D_4_0" index="0" speed="6.51" length="9.03" shape="311.67,616.62,5.61 309.22,616.97,5.65 307.47,618.02,5.68 306.42,619.77,5.71 306.07,622.22,5.75" />
    </edge>
    <edge id=":D_5" function="internal">
        <lane id=":D_5_0" index="0" speed="8.94" length="14.40" shape="311.67,616.62,5.61 297.27,616.62,5.75" />
    </edge>
    <edge id=":D_6" function="internal">
        <lane id=":D_6_0" index="0" speed="8.00" length="4.07" shape="311.67,616.62,5.61 307.82,616.07,5.65 307.67,615.98,5.65" />
    </edge>
    <edge id=":D_7" function="internal">
        <lane id=":D_7_0" index="0" speed="3.65" length="1.44" shape="311.67,616.62,5.61 310.47,615.82,5.61" />
    </edge>
    <edge id=":D_18" function="internal">
        <lane id=":D_18_0" index="0" speed="8.00" length="10.13" shape="307.67,615.98,5.65 305.07,614.42,5.68 303.42,611.67,5.71 302.87,607.82,5.75" />
    </edge>
    <edge id=":D_19" function="internal">
        <lane id=":D_19_0" index="0" speed="3.65" length="3.23" shape="310.47,615.82,5.61 310.07,615.02,5.61 310.47,614.22,5.61 311.67,613.42,5.62" />
    </edge>
    <edge id=":D_8" function="internal">
        <lane id=":D_8_0" index="0" speed="6.51" length="9.03" shape="306.07,607.82,5.75 306.42,610.27,5.72 307.47,612.02,5.69 309.22,613.07,5.65 311.67,613.42,5.62" />
    </edge>
    <edge id=":D_9" function="internal">
        <lane id=":D_9_0" index="0" speed="8.94" length="14.40" shape="306.07,607.82,5.75 306.07,622.22,5.75" />
    </edge>
    <edge id=":D_10" function="internal">
        <lane id=":D_10_0" index="0" speed="8.00" length="4.07" shape="306.07,607.82,5.75 305.52,611.67,5.75 305.43,611.82,5.75" />
    </edge>
    <edge id=":D_11" function="internal">
        <lane id=":D_11_0" index="0" speed="3.65" length="1.44" shape="306.07,607.82,5.75 305.27,609.02,5.75" />
    </edge>
    <edge id=":D_20" function="internal">
        <lane id=":D_20_0" index="0" speed="8.00" length="10.13" shape="305.43,611.82,5.75 303.87,614.42,5.75 301.12,616.07,5.75 297.27,616.62,5.75" />
    </edge>
    <edge id=":D_21" function="internal">
        <lane id=":D_21_0" index="0" speed="3.65" length="3.23" shape="305.27,609.02,5.75 304.47,609.42,5.75 303.67,609.02,5.75 302.87,607.82,5.75" />
    </edge>
    <edge id=":D_12" function="internal">
        <lane id=":D_12_0" index="0" speed="6.51" length="9.03" shape="297.27,613.42,5.75 299.72,613.07,5.75 301.47,612.02,5.75 302.52,610.27,5.75 302.87,607.82,5.75" />
    </edge>
    <edge id=":D_13" function="internal">
        <lane id=":D_13_0" index="0" speed="8.94" length="14.40" shape="297.27,613.42,5.75 311.67,613.42,5.62" />
    </edge>
    <edge id=":D_14" function="internal">
        <lane id=":D_14_0" index="0" speed="8.00" length="4.07" shape="297.27,613.42,5.75 301.12,613.97,5.75 301.28,614.06,5.75" />
    </edge>
    <edge id=":D_15" function="internal">
        <lane id=":D_15_0" index="0" speed="3.65" length="1.44" shape="297.27,613.42,5.75 298.47,614.22,5.75" />
    </edge>
    <edge id=":D_22" function="internal">
        <lane id=":D_22_0" index="0" speed="8.00" length="10.13" shape="301.28,614.06,5.75 303.87,615.62,5.75 305.52,618.37,5.75 306.07,622.22,5.75" />
    </edge>
    <edge id=":D_23" function="internal">
        <lane id=":D_23_0" index="0" speed="3.65" length="3.23" shape="298.47,614.22,5.75 298.87,615.02,5.75 298.47,615.82,5.75 297.27,616.62,5.75" />
    </edge>
    <edge id=":DA_0" function="internal">
        <lane id=":DA_0_0" index="0" speed="3.65" length="4.67" shape="302.87,310.55,5.75 303.67,309.35,5.75 304.47,308.95,5.75 305.27,309.35,5.75 306.07,310.55,5.75" />
    </edge>
    <edge id=":DB_0" function="internal">
        <lane id=":DB_0_0" index="0" speed="3.65" length="4.67" shape="-0.00,616.62,5.75 -1.20,615.82,5.75 -1.60,615.02,5.75 -1.20,614.22,5.75 -0.00,613.42,5.75" />
    </edge>
    <edge id=":DC_0" function="internal">
        <lane id=":DC_0_0" index="0" speed="3.65" length="4.67" shape="306.07,919.49,5.75 305.27,920.69,5.75 304.47,921.09,5.75 303.67,920.69,5.75 302.87,919.49,5.75" />
    </edge>
    <edge id=":TL_0" function="internal">
        <lane id=":TL_0_0" index="0" speed="6.51" length="9.03" shape="597.75,622.22,0.13 597.40,619.77,0.09 596.35,618.02,0.06 594.60,616.97,0.03 592.15,616.62" />
    </edge>
    <edge id=":TL_1" function="internal">
        <lane id=":TL_1_0" index="0" speed="13.41" length="15.74" shape="597.75,622.22,0.13 598.75,617.75,0.13 600.95,615.02,0.14 603.15,612.29,0.14 604.15,607.82,0.14" />
        <lane id=":TL_1_1" index="1" speed="13.41" length="15.74" shape="600.95,622.22,0.13 601.95,617.75,0.13 604.15,615.02,0.14 606.35,612.29,0.14 607.35,607.82,0.14" />
        <lane id=":TL_1_2" index="2" speed="13.41" length="15.74" shape="604.15,622.22,0.13 604.65,617.89,0.13 605.75,615.02,0.14 606.85,612.14,0.14 607.35,607.82,0.14" />
    </edge>
    <edge id=":TL_4" function="internal">
        <lane id=":TL_4_0" index="0" speed="8.67" length="5.00" shape="607.35,622.22,0.13 608.10,618.37,0.06 608.78,617.54,0.04" />
    </edge>
    <edge id=":TL_12" function="internal">
        <lane id=":TL_12_0" index="0" speed="8.67" length="11.85" shape="608.78,617.54,0.04 610.35,615.62,-0.00 614.10,613.97,-0.08 619.35,613.42,-0.17" />
    </edge>
    <edge id=":TL_5" function="internal">
        <lane id=":TL_5_0" index="0" speed="7.33" length="11.73" shape="619.35,616.62,-0.17 615.50,616.97,-0.07 612.75,618.02,0.00 611.10,619.77,0.06 610.55,622.22,0.13" />
    </edge>
    <edge id=":TL_6" function="internal">
        <lane id=":TL_6_0" index="0" speed="8.94" length="27.20" shape="619.35,616.62,-0.17 592.15,616.62" />
    </edge>
    <edge id=":TL_7" function="internal">
        <lane id=":TL_7_0" index="0" speed="6.51" length="9.04" shape="613.75,607.82,0.15 614.10,610.27,0.06 615.15,612.02,-0.01 616.90,613.07,-0.08 619.35,613.42,-0.17" />
    </edge>
    <edge id=":TL_8" function="internal">
        <lane id=":TL_8_0" index="0" speed="13.41" length="14.83" shape="613.75,607.82,0.15 613.25,612.48,0.14 612.15,615.91,0.14 611.05,618.90,0.13 610.55,622.22,0.13" />
    </edge>
    <edge id=":TL_9" function="internal">
        <lane id=":TL_9_0" index="0" speed="9.94" length="3.79" shape="610.55,607.82,0.15 609.46,611.46,0.12" />
    </edge>
    <edge id=":TL_13" function="internal">
        <lane id=":TL_13_0" index="0" speed="9.94" length="18.69" shape="609.46,611.46,0.12 609.40,611.67,0.12 605.95,614.42,0.09 600.20,616.07,0.05 592.15,616.62" />
    </edge>
    <edge id=":TL_10" function="internal">
        <lane id=":TL_10_0" index="0" speed="8.10" length="14.57" shape="592.15,613.42 597.40,613.07,0.05 601.15,612.02,0.09 603.40,610.27,0.12 604.15,607.82,0.14" />
    </edge>
    <edge id=":TL_11" function="internal">
        <lane id=":TL_11_0" index="0" speed="8.94" length="27.20" shape="592.15,613.42 619.35,613.42,-0.17" />
    </edge>

    <edge id="A2AA" from="A" to="AA" priority="-1">
        <lane id="A2AA_0" index="0" speed="13.41" length="284.95" shape="595.35,915.17,5.28 310.39,915.17,5.28" />
    </edge>
    <edge id="A2AB" from="A" to="AB" priority="-1">
        <lane id="A2AB_0" index="0" speed="13.41" length="284.95" shape="610.55,927.17,5.28 610.55,1212.13,5.28" />
    </edge>
    <edge id="A2AC" from="A" to="AC" priority="-1">
        <lane id="A2AC_0" index="0" speed="13.41" length="291.35" shape="616.15,911.97,5.28 907.50,911.97,5.28" />
    </edge>
    <edge id="A2TL" from="A" to="A_intern" priority="-1">
        <lane id="A2TL_0" index="0" speed="13.41" length="230.99" shape="600.95,899.97,5.28 600.95,669.02,0.96" />
        <lane id="A2TL_1" index="1" speed="13.41" length="230.99" shape="604.15,899.97,5.28 604.15,669.02,0.96" />
        <lane id="A2TL_2" index="2" speed="13.41" length="230.99" shape="607.35,899.97,5.28 607.35,669.02,0.96" />
    </edge>
    <edge id="A2TL_intern" from="A_intern" to="TL" priority="-1">
        <lane id="A2TL_intern_0" index="0" speed="13.41" length="38.81" shape="597.75,661.02,0.81 597.75,622.22,0.13" />
        <lane id="A2TL_intern_1" index="1" speed="13.41" length="38.81" shape="600.95,661.02,0.81 600.95,622.22,0.13" />
        <lane id="A2TL_intern_2" index="2" speed="13.41" length="38.81" shape="604.15,661.02,0.81 604.15,622.22,0.13" />
        <lane id="A2TL_intern_3" index="3" speed="13.41" length="38.81" shape="607.35,661.02,0.81 607.35,622.22,0.13" />
    </edge>
    <edge id="AA2A" from="AA" to="A" priority="-1">
        <lane id="AA2A_0" index="0" speed="13.41" length="284.95" shape="310.39,905.57,5.28 595.35,905.57,5.28" />
        <lane id="AA2A_1" index="1" speed="13.41" length="284.95" shape="310.39,908.77,5.28 595.35,908.77,5.28" />
        <lane id="AA2A_2" index="2" speed="13.41" length="284.95" shape="310.39,911.97,5.28 595.35,911.97,5.28" />
    </edge>
    <edge id="AB2A" from="AB" to="A" priority="-1">
        <lane id="AB2A_0" index="0" speed="13.41" length="284.95" shape="600.95,1212.13,5.28 600.95,927.17,5.28" />
        <lane id="AB2A_1" index="1" speed="13.41" length="284.95" shape="604.15,1212.13,5.28 604.15,927.17,5.28" />
        <lane id="AB2A_2" index="2" speed="13.41" length="284.95" shape="607.35,1212.13,5.28 607.35,927.17,5.28" />
    </edge>
    <edge id="AC2A" from="AC" to="A" priority="-1">
        <lane id="AC2A_0" index="0" speed="13.41" length="291.35" shape="907.50,921.57,5.28 616.15,921.57,5.28" />
        <lane id="AC2A_1" index="1" speed="13.41" length="291.35" shape="907.50,918.37,5.28 616.15,918.37,5.28" />
        <lane id="AC2A_2" index="2" speed="13.41" length="291.35" shape="907.50,915.17,5.28 616.15,915.17,5.28" />
    </edge>
    <edge id="B2BA" from="B" to="BA" priority="-1">
        <lane id="B2BA_0" index="0" speed="8.94" length="312.31" shape="930.06,622.22,-5.16 930.06,934.53,-5.16" />
    </edge>
    <edge id="B2BB" from="B" to="BB" priority="-1">
        <lane id="B2BB_0" index="0" speed="8.94" length="312.31" shape="935.66,613.42,-5.16 1247.97,613.42,-5.16" />
    </edge>
    <edge id="B2BC" from="B" to="BC" priority="-1">
        <lane id="B2BC_0" index="0" speed="8.94" length="312.31" shape="926.86,607.82,-5.16 926.86,295.51,-5.16" />
    </edge>
    <edge id="B2TL" from="B" to="TL" priority="-1">
        <lane id="B2TL_0" index="0" speed="8.94" length="301.95" shape="921.26,616.62,-5.05 619.35,616.62,-0.17" />
    </edge>
    <edge id="BA2B" from="BA" to="B" priority="-1">
        <lane id="BA2B_0" index="0" speed="8.94" length="312.31" shape="926.86,934.53,-5.16 926.86,622.22,-5.16" />
    </edge>
    <edge id="BB2B" from="BB" to="B" priority="-1">
        <lane id="BB2B_0" index="0" speed="8.94" length="312.31" shape="1247.97,616.62,-5.16 935.66,616.62,-5.16" />
    </edge>
    <edge id="BC2B" from="BC" to="B" priority="-1">
        <lane id="BC2B_0" index="0" speed="8.94" length="312.31" shape="930.06,295.51,-5.16 930.06,607.82,-5.16" />
    </edge>
    <edge id="C2CA" from="C" to="CA" priority="-1">